/*---------------------------------------------------------------------------*\
  =========                 |
  \\      /  F ield         | OpenFOAM: The Open Source CFD Toolbox
   \\    /   O peration     | Website:  https://openfoam.org
    \\  /    A nd           | Version:  7
     \\/     M anipulation  |
\*---------------------------------------------------------------------------*/
Build  : 7-6ef561967074
Exec   : simpleFoam -parallel
Date   : Jan 29 2020
Time   : 17:26:17
Host   : "ip-172-31-12-137"
PID    : 12930
I/O    : uncollated
Case   : /home/ubuntu/OpenFOAM/ubuntu-7/run/pd-ref
nProcs : 4
Slaves : 
3
(
"ip-172-31-12-137.12931"
"ip-172-31-7-21.7056"
"ip-172-31-7-21.7057"
)

Pstream initialized with:
    floatTransfer      : 0
    nProcsSimpleSum    : 0
    commsType          : nonBlocking
    polling iterations : 0
sigFpe : Enabling floating point exception trapping (FOAM_SIGFPE).
fileModificationChecking : Monitoring run-time modified files using timeStampMaster (fileModificationSkew 10)
allowSystemOperations : Allowing user-supplied system call operations

// * * * * * * * * * * * * * * * * * * * * * * * * * * * * * * * * * * * * * //
Create time

Create mesh for time = 0


SIMPLE: Convergence criteria found
        p: tolerance 0.01
        U: tolerance 0.001
        "(k|epsilon|omega|f|v2)": tolerance 0.001

Reading field p

Reading field U

Reading/calculating face flux field phi

Selecting incompressible transport model Newtonian
Selecting turbulence model type RAS
Selecting RAS turbulence model kEpsilon
RAS
{
    RASModel        kEpsilon;
    turbulence      on;
    printCoeffs     on;
    Cmu             0.09;
    C1              1.44;
    C2              1.92;
    C3              0;
    sigmak          1;
    sigmaEps        1.3;
}

No MRF models present

No finite volume options present

Starting time loop

streamLine streamlines:
    automatic track length specified through number of sub cycles : 5

Time = 1

smoothSolver:  Solving for Ux, Initial residual = 1, Final residual = 0.070794, No Iterations 2
smoothSolver:  Solving for Uy, Initial residual = 1, Final residual = 0.0868564, No Iterations 3
GAMG:  Solving for p, Initial residual = 1, Final residual = 0.0895278, No Iterations 36
time step continuity errors : sum local = 1.56655, global = -0.327874, cumulative = -0.327874
smoothSolver:  Solving for epsilon, Initial residual = 0.240162, Final residual = 0.0201517, No Iterations 4
smoothSolver:  Solving for k, Initial residual = 1, Final residual = 0.0927679, No Iterations 5
ExecutionTime = 0.41 s  ClockTime = 1 s

Time = 2

smoothSolver:  Solving for Ux, Initial residual = 0.514825, Final residual = 0.0444352, No Iterations 9
smoothSolver:  Solving for Uy, Initial residual = 0.248775, Final residual = 0.0228181, No Iterations 8
GAMG:  Solving for p, Initial residual = 0.0300412, Final residual = 0.00263527, No Iterations 20
time step continuity errors : sum local = 5.6877, global = 1.13827, cumulative = 0.810398
smoothSolver:  Solving for epsilon, Initial residual = 0.180328, Final residual = 0.0177474, No Iterations 4
bounding epsilon, min: -120.736 max: 164404 average: 118.911
smoothSolver:  Solving for k, Initial residual = 0.491503, Final residual = 0.0438476, No Iterations 5
ExecutionTime = 0.54 s  ClockTime = 1 s

Time = 3

smoothSolver:  Solving for Ux, Initial residual = 0.142984, Final residual = 0.0118396, No Iterations 9
smoothSolver:  Solving for Uy, Initial residual = 0.142196, Final residual = 0.0141985, No Iterations 8
GAMG:  Solving for p, Initial residual = 0.123059, Final residual = 0.0111204, No Iterations 8
time step continuity errors : sum local = 6.50453, global = 0.936166, cumulative = 1.74656
smoothSolver:  Solving for epsilon, Initial residual = 0.181959, Final residual = 0.0143403, No Iterations 3
bounding epsilon, min: -344.331 max: 320501 average: 153.98
smoothSolver:  Solving for k, Initial residual = 0.220057, Final residual = 0.0207929, No Iterations 6
ExecutionTime = 0.6 s  ClockTime = 1 s

Time = 4

smoothSolver:  Solving for Ux, Initial residual = 0.0404467, Final residual = 0.00350982, No Iterations 8
smoothSolver:  Solving for Uy, Initial residual = 0.0568469, Final residual = 0.00506558, No Iterations 8
GAMG:  Solving for p, Initial residual = 0.145426, Final residual = 0.013508, No Iterations 8
time step continuity errors : sum local = 2.86971, global = 0.381493, cumulative = 2.12806
smoothSolver:  Solving for epsilon, Initial residual = 0.124239, Final residual = 0.0096585, No Iterations 3
smoothSolver:  Solving for k, Initial residual = 0.155041, Final residual = 0.0126384, No Iterations 7
ExecutionTime = 0.67 s  ClockTime = 1 s

Time = 5

smoothSolver:  Solving for Ux, Initial residual = 0.039629, Final residual = 0.00316499, No Iterations 9
smoothSolver:  Solving for Uy, Initial residual = 0.0449762, Final residual = 0.00438063, No Iterations 8
GAMG:  Solving for p, Initial residual = 0.112853, Final residual = 0.0104407, No Iterations 3
time step continuity errors : sum local = 1.61253, global = -0.404614, cumulative = 1.72344
smoothSolver:  Solving for epsilon, Initial residual = 0.075615, Final residual = 0.00668593, No Iterations 4
smoothSolver:  Solving for k, Initial residual = 0.117476, Final residual = 0.0106812, No Iterations 7
ExecutionTime = 0.7 s  ClockTime = 1 s

Time = 6

smoothSolver:  Solving for Ux, Initial residual = 0.0350253, Final residual = 0.00288881, No Iterations 9
smoothSolver:  Solving for Uy, Initial residual = 0.036991, Final residual = 0.00294703, No Iterations 9
GAMG:  Solving for p, Initial residual = 0.0964134, Final residual = 0.00829325, No Iterations 5
time step continuity errors : sum local = 1.09987, global = -0.177007, cumulative = 1.54644
smoothSolver:  Solving for epsilon, Initial residual = 0.0549038, Final residual = 0.00449516, No Iterations 5
smoothSolver:  Solving for k, Initial residual = 0.0924019, Final residual = 0.00869911, No Iterations 7
ExecutionTime = 0.75 s  ClockTime = 1 s

Time = 7

smoothSolver:  Solving for Ux, Initial residual = 0.0260584, Final residual = 0.00213688, No Iterations 9
smoothSolver:  Solving for Uy, Initial residual = 0.0330366, Final residual = 0.00265168, No Iterations 9
GAMG:  Solving for p, Initial residual = 0.104484, Final residual = 0.00867099, No Iterations 5
time step continuity errors : sum local = 0.834643, global = -0.127021, cumulative = 1.41942
smoothSolver:  Solving for epsilon, Initial residual = 0.0435666, Final residual = 0.00371918, No Iterations 5
smoothSolver:  Solving for k, Initial residual = 0.0753311, Final residual = 0.00720682, No Iterations 7
ExecutionTime = 0.8 s  ClockTime = 1 s

Time = 8

smoothSolver:  Solving for Ux, Initial residual = 0.02358, Final residual = 0.00196931, No Iterations 9
smoothSolver:  Solving for Uy, Initial residual = 0.0313707, Final residual = 0.00253947, No Iterations 9
GAMG:  Solving for p, Initial residual = 0.073623, Final residual = 0.00344994, No Iterations 4
time step continuity errors : sum local = 0.362096, global = -0.0322648, cumulative = 1.38715
smoothSolver:  Solving for epsilon, Initial residual = 0.0434028, Final residual = 0.00327904, No Iterations 5
smoothSolver:  Solving for k, Initial residual = 0.063972, Final residual = 0.0061988, No Iterations 7
ExecutionTime = 0.84 s  ClockTime = 1 s

Time = 9

smoothSolver:  Solving for Ux, Initial residual = 0.0222952, Final residual = 0.00189827, No Iterations 9
smoothSolver:  Solving for Uy, Initial residual = 0.0300561, Final residual = 0.00244777, No Iterations 9
GAMG:  Solving for p, Initial residual = 0.0606911, Final residual = 0.00516407, No Iterations 3
time step continuity errors : sum local = 0.538681, global = -0.0744757, cumulative = 1.31267
smoothSolver:  Solving for epsilon, Initial residual = 0.0439987, Final residual = 0.00432948, No Iterations 4
smoothSolver:  Solving for k, Initial residual = 0.0559861, Final residual = 0.00544561, No Iterations 7
ExecutionTime = 0.88 s  ClockTime = 1 s

Time = 10

smoothSolver:  Solving for Ux, Initial residual = 0.0207155, Final residual = 0.00177614, No Iterations 9
smoothSolver:  Solving for Uy, Initial residual = 0.0286273, Final residual = 0.00235135, No Iterations 9
GAMG:  Solving for p, Initial residual = 0.0568439, Final residual = 0.00322501, No Iterations 4
time step continuity errors : sum local = 0.31131, global = 0.030024, cumulative = 1.3427
smoothSolver:  Solving for epsilon, Initial residual = 0.0486832, Final residual = 0.00431915, No Iterations 4
smoothSolver:  Solving for k, Initial residual = 0.0507927, Final residual = 0.00495339, No Iterations 7
ExecutionTime = 0.92 s  ClockTime = 1 s

Time = 11

smoothSolver:  Solving for Ux, Initial residual = 0.0192004, Final residual = 0.00166385, No Iterations 9
smoothSolver:  Solving for Uy, Initial residual = 0.0272068, Final residual = 0.00226396, No Iterations 9
GAMG:  Solving for p, Initial residual = 0.0532769, Final residual = 0.00393758, No Iterations 3
time step continuity errors : sum local = 0.343292, global = -0.0262785, cumulative = 1.31642
smoothSolver:  Solving for epsilon, Initial residual = 0.0391446, Final residual = 0.00304437, No Iterations 5
smoothSolver:  Solving for k, Initial residual = 0.0458944, Final residual = 0.00455347, No Iterations 7
ExecutionTime = 0.96 s  ClockTime = 1 s

Time = 12

smoothSolver:  Solving for Ux, Initial residual = 0.0182682, Final residual = 0.00159238, No Iterations 9
smoothSolver:  Solving for Uy, Initial residual = 0.0260582, Final residual = 0.00219875, No Iterations 9
GAMG:  Solving for p, Initial residual = 0.0501603, Final residual = 0.0031007, No Iterations 3
time step continuity errors : sum local = 0.25797, global = 0.00344997, cumulative = 1.31987
smoothSolver:  Solving for epsilon, Initial residual = 0.0357768, Final residual = 0.00306619, No Iterations 5
smoothSolver:  Solving for k, Initial residual = 0.0420645, Final residual = 0.00319134, No Iterations 8
ExecutionTime = 0.99 s  ClockTime = 1 s

Time = 13

smoothSolver:  Solving for Ux, Initial residual = 0.0175247, Final residual = 0.00153595, No Iterations 9
smoothSolver:  Solving for Uy, Initial residual = 0.0250119, Final residual = 0.00213375, No Iterations 9
GAMG:  Solving for p, Initial residual = 0.0477695, Final residual = 0.00290752, No Iterations 3
time step continuity errors : sum local = 0.235053, global = -0.00973765, cumulative = 1.31013
smoothSolver:  Solving for epsilon, Initial residual = 0.0341031, Final residual = 0.0032341, No Iterations 5
smoothSolver:  Solving for k, Initial residual = 0.0386517, Final residual = 0.00299574, No Iterations 8
ExecutionTime = 1.03 s  ClockTime = 1 s

Time = 14

smoothSolver:  Solving for Ux, Initial residual = 0.0169286, Final residual = 0.00149065, No Iterations 9
smoothSolver:  Solving for Uy, Initial residual = 0.0241129, Final residual = 0.00207226, No Iterations 9
GAMG:  Solving for p, Initial residual = 0.0455794, Final residual = 0.00454988, No Iterations 2
time step continuity errors : sum local = 0.35794, global = 0.00558279, cumulative = 1.31572
smoothSolver:  Solving for epsilon, Initial residual = 0.0308308, Final residual = 0.00240163, No Iterations 6
smoothSolver:  Solving for k, Initial residual = 0.0358599, Final residual = 0.0028218, No Iterations 8
ExecutionTime = 1.06 s  ClockTime = 1 s

Time = 15

smoothSolver:  Solving for Ux, Initial residual = 0.0163654, Final residual = 0.00144758, No Iterations 9
smoothSolver:  Solving for Uy, Initial residual = 0.0235105, Final residual = 0.00202769, No Iterations 9
GAMG:  Solving for p, Initial residual = 0.0453101, Final residual = 0.00329413, No Iterations 3
time step continuity errors : sum local = 0.252921, global = -0.0345153, cumulative = 1.2812
smoothSolver:  Solving for epsilon, Initial residual = 0.028996, Final residual = 0.00238098, No Iterations 6
smoothSolver:  Solving for k, Initial residual = 0.0334882, Final residual = 0.00264921, No Iterations 8
ExecutionTime = 1.1 s  ClockTime = 2 s

Time = 16

smoothSolver:  Solving for Ux, Initial residual = 0.0160225, Final residual = 0.00142117, No Iterations 9
smoothSolver:  Solving for Uy, Initial residual = 0.0229466, Final residual = 0.0019916, No Iterations 9
GAMG:  Solving for p, Initial residual = 0.0405949, Final residual = 0.00381897, No Iterations 2
time step continuity errors : sum local = 0.287758, global = -0.00495405, cumulative = 1.27625
smoothSolver:  Solving for epsilon, Initial residual = 0.0274082, Final residual = 0.00240396, No Iterations 6
smoothSolver:  Solving for k, Initial residual = 0.0313444, Final residual = 0.00250708, No Iterations 8
ExecutionTime = 1.13 s  ClockTime = 2 s

Time = 17

smoothSolver:  Solving for Ux, Initial residual = 0.0155097, Final residual = 0.00138038, No Iterations 9
smoothSolver:  Solving for Uy, Initial residual = 0.0224828, Final residual = 0.00196292, No Iterations 9
GAMG:  Solving for p, Initial residual = 0.0405293, Final residual = 0.00287339, No Iterations 3
time step continuity errors : sum local = 0.212963, global = -0.0456453, cumulative = 1.2306
smoothSolver:  Solving for epsilon, Initial residual = 0.026339, Final residual = 0.00239486, No Iterations 6
smoothSolver:  Solving for k, Initial residual = 0.0297827, Final residual = 0.00240748, No Iterations 8
ExecutionTime = 1.17 s  ClockTime = 2 s

Time = 18

smoothSolver:  Solving for Ux, Initial residual = 0.0151006, Final residual = 0.00134605, No Iterations 9
smoothSolver:  Solving for Uy, Initial residual = 0.0221053, Final residual = 0.00194633, No Iterations 9
GAMG:  Solving for p, Initial residual = 0.0364637, Final residual = 0.00344848, No Iterations 2
time step continuity errors : sum local = 0.246207, global = -0.011863, cumulative = 1.21874
smoothSolver:  Solving for epsilon, Initial residual = 0.0242776, Final residual = 0.00236051, No Iterations 6
smoothSolver:  Solving for k, Initial residual = 0.0282444, Final residual = 0.00231605, No Iterations 8
ExecutionTime = 1.21 s  ClockTime = 2 s

Time = 19

smoothSolver:  Solving for Ux, Initial residual = 0.0146547, Final residual = 0.00130952, No Iterations 9
smoothSolver:  Solving for Uy, Initial residual = 0.0217458, Final residual = 0.00192776, No Iterations 9
GAMG:  Solving for p, Initial residual = 0.0367132, Final residual = 0.00230775, No Iterations 3
time step continuity errors : sum local = 0.161037, global = -0.0234793, cumulative = 1.19526
smoothSolver:  Solving for epsilon, Initial residual = 0.0235716, Final residual = 0.00230359, No Iterations 6
smoothSolver:  Solving for k, Initial residual = 0.0271105, Final residual = 0.00224885, No Iterations 8
ExecutionTime = 1.24 s  ClockTime = 2 s

Time = 20

smoothSolver:  Solving for Ux, Initial residual = 0.0142722, Final residual = 0.00127505, No Iterations 9
smoothSolver:  Solving for Uy, Initial residual = 0.0214699, Final residual = 0.00192077, No Iterations 9
GAMG:  Solving for p, Initial residual = 0.0337544, Final residual = 0.00319137, No Iterations 2
time step continuity errors : sum local = 0.224406, global = -0.00702503, cumulative = 1.18823
smoothSolver:  Solving for epsilon, Initial residual = 0.0226562, Final residual = 0.00226077, No Iterations 6
smoothSolver:  Solving for k, Initial residual = 0.0258885, Final residual = 0.00215805, No Iterations 8
ExecutionTime = 1.28 s  ClockTime = 2 s

Time = 21

smoothSolver:  Solving for Ux, Initial residual = 0.0138645, Final residual = 0.00124146, No Iterations 9
smoothSolver:  Solving for Uy, Initial residual = 0.021263, Final residual = 0.00191083, No Iterations 9
GAMG:  Solving for p, Initial residual = 0.0338183, Final residual = 0.00237763, No Iterations 3
time step continuity errors : sum local = 0.162116, global = -0.00893812, cumulative = 1.1793
smoothSolver:  Solving for epsilon, Initial residual = 0.0216921, Final residual = 0.00166397, No Iterations 7
smoothSolver:  Solving for k, Initial residual = 0.0249037, Final residual = 0.00208596, No Iterations 8
ExecutionTime = 1.32 s  ClockTime = 2 s

Time = 22

smoothSolver:  Solving for Ux, Initial residual = 0.013489, Final residual = 0.0012082, No Iterations 9
smoothSolver:  Solving for Uy, Initial residual = 0.0210519, Final residual = 0.00190389, No Iterations 9
GAMG:  Solving for p, Initial residual = 0.0304179, Final residual = 0.00294655, No Iterations 2
time step continuity errors : sum local = 0.196027, global = 0.00218774, cumulative = 1.18148
smoothSolver:  Solving for epsilon, Initial residual = 0.0209375, Final residual = 0.00161197, No Iterations 7
smoothSolver:  Solving for k, Initial residual = 0.0239431, Final residual = 0.00200253, No Iterations 8
ExecutionTime = 1.35 s  ClockTime = 2 s

Time = 23

smoothSolver:  Solving for Ux, Initial residual = 0.0131563, Final residual = 0.00117877, No Iterations 9
smoothSolver:  Solving for Uy, Initial residual = 0.0209119, Final residual = 0.00189861, No Iterations 9
GAMG:  Solving for p, Initial residual = 0.0303558, Final residual = 0.00301894, No Iterations 3
time step continuity errors : sum local = 0.198264, global = -0.024685, cumulative = 1.1568
smoothSolver:  Solving for epsilon, Initial residual = 0.0204017, Final residual = 0.00156114, No Iterations 7
smoothSolver:  Solving for k, Initial residual = 0.0231074, Final residual = 0.00193127, No Iterations 8
ExecutionTime = 1.39 s  ClockTime = 2 s

Time = 24

smoothSolver:  Solving for Ux, Initial residual = 0.0127977, Final residual = 0.00114527, No Iterations 9
smoothSolver:  Solving for Uy, Initial residual = 0.0206966, Final residual = 0.00188651, No Iterations 9
GAMG:  Solving for p, Initial residual = 0.0276961, Final residual = 0.00218463, No Iterations 3
time step continuity errors : sum local = 0.139187, global = 0.0353529, cumulative = 1.19215
smoothSolver:  Solving for epsilon, Initial residual = 0.019949, Final residual = 0.0015186, No Iterations 7
smoothSolver:  Solving for k, Initial residual = 0.0223476, Final residual = 0.0018625, No Iterations 8
ExecutionTime = 1.42 s  ClockTime = 2 s

Time = 25

smoothSolver:  Solving for Ux, Initial residual = 0.012498, Final residual = 0.00111807, No Iterations 9
smoothSolver:  Solving for Uy, Initial residual = 0.0205992, Final residual = 0.00188062, No Iterations 9
GAMG:  Solving for p, Initial residual = 0.0267178, Final residual = 0.00221601, No Iterations 3
time step continuity errors : sum local = 0.139023, global = -0.0361144, cumulative = 1.15604
smoothSolver:  Solving for epsilon, Initial residual = 0.0195258, Final residual = 0.00147258, No Iterations 7
smoothSolver:  Solving for k, Initial residual = 0.021685, Final residual = 0.00179521, No Iterations 8
ExecutionTime = 1.47 s  ClockTime = 2 s

Time = 26

smoothSolver:  Solving for Ux, Initial residual = 0.0122278, Final residual = 0.00109348, No Iterations 9
smoothSolver:  Solving for Uy, Initial residual = 0.0205038, Final residual = 0.00187307, No Iterations 9
GAMG:  Solving for p, Initial residual = 0.0258901, Final residual = 0.00220784, No Iterations 3
time step continuity errors : sum local = 0.135663, global = 0.0369956, cumulative = 1.19303
smoothSolver:  Solving for epsilon, Initial residual = 0.0190903, Final residual = 0.00189798, No Iterations 6
smoothSolver:  Solving for k, Initial residual = 0.0210973, Final residual = 0.00173413, No Iterations 8
ExecutionTime = 1.5 s  ClockTime = 2 s

Time = 27

smoothSolver:  Solving for Ux, Initial residual = 0.011963, Final residual = 0.00106916, No Iterations 9
smoothSolver:  Solving for Uy, Initial residual = 0.0203153, Final residual = 0.00185679, No Iterations 9
GAMG:  Solving for p, Initial residual = 0.0245789, Final residual = 0.00219859, No Iterations 3
time step continuity errors : sum local = 0.133209, global = -0.0334684, cumulative = 1.15956
smoothSolver:  Solving for epsilon, Initial residual = 0.0186408, Final residual = 0.00184188, No Iterations 6
smoothSolver:  Solving for k, Initial residual = 0.0205327, Final residual = 0.00167691, No Iterations 8
ExecutionTime = 1.54 s  ClockTime = 2 s

Time = 28

smoothSolver:  Solving for Ux, Initial residual = 0.0117161, Final residual = 0.00104614, No Iterations 9
smoothSolver:  Solving for Uy, Initial residual = 0.0200943, Final residual = 0.00183649, No Iterations 9
GAMG:  Solving for p, Initial residual = 0.023353, Final residual = 0.00206431, No Iterations 3
time step continuity errors : sum local = 0.122968, global = 0.0330663, cumulative = 1.19263
smoothSolver:  Solving for epsilon, Initial residual = 0.0183529, Final residual = 0.00179668, No Iterations 6
smoothSolver:  Solving for k, Initial residual = 0.0200544, Final residual = 0.00162507, No Iterations 8
ExecutionTime = 1.58 s  ClockTime = 2 s

Time = 29

smoothSolver:  Solving for Ux, Initial residual = 0.0114797, Final residual = 0.00102429, No Iterations 9
smoothSolver:  Solving for Uy, Initial residual = 0.0198586, Final residual = 0.00181455, No Iterations 9
GAMG:  Solving for p, Initial residual = 0.0220358, Final residual = 0.00200489, No Iterations 3
time step continuity errors : sum local = 0.118161, global = -0.0275812, cumulative = 1.16505
smoothSolver:  Solving for epsilon, Initial residual = 0.0179791, Final residual = 0.00173967, No Iterations 6
smoothSolver:  Solving for k, Initial residual = 0.0196114, Final residual = 0.00157581, No Iterations 8
ExecutionTime = 1.62 s  ClockTime = 2 s

Time = 30

smoothSolver:  Solving for Ux, Initial residual = 0.0112551, Final residual = 0.00100291, No Iterations 9
smoothSolver:  Solving for Uy, Initial residual = 0.019641, Final residual = 0.00179319, No Iterations 9
GAMG:  Solving for p, Initial residual = 0.0209387, Final residual = 0.00189072, No Iterations 3
time step continuity errors : sum local = 0.109711, global = 0.0283854, cumulative = 1.19343
smoothSolver:  Solving for epsilon, Initial residual = 0.017636, Final residual = 0.00168972, No Iterations 6
smoothSolver:  Solving for k, Initial residual = 0.0192319, Final residual = 0.00153064, No Iterations 8
ExecutionTime = 1.65 s  ClockTime = 2 s

Time = 31

smoothSolver:  Solving for Ux, Initial residual = 0.0110398, Final residual = 0.000982432, No Iterations 9
smoothSolver:  Solving for Uy, Initial residual = 0.0194238, Final residual = 0.00177154, No Iterations 9
GAMG:  Solving for p, Initial residual = 0.0197276, Final residual = 0.00187538, No Iterations 3
time step continuity errors : sum local = 0.107724, global = -0.0233738, cumulative = 1.17006
smoothSolver:  Solving for epsilon, Initial residual = 0.0172662, Final residual = 0.00163831, No Iterations 6
smoothSolver:  Solving for k, Initial residual = 0.0189106, Final residual = 0.00149227, No Iterations 8
ExecutionTime = 1.7 s  ClockTime = 2 s

Time = 32

smoothSolver:  Solving for Ux, Initial residual = 0.010832, Final residual = 0.000962689, No Iterations 9
smoothSolver:  Solving for Uy, Initial residual = 0.019228, Final residual = 0.00175058, No Iterations 9
GAMG:  Solving for p, Initial residual = 0.0187835, Final residual = 0.0018297, No Iterations 3
time step continuity errors : sum local = 0.103517, global = 0.0232966, cumulative = 1.19336
smoothSolver:  Solving for epsilon, Initial residual = 0.0168857, Final residual = 0.00159207, No Iterations 6
smoothSolver:  Solving for k, Initial residual = 0.0185657, Final residual = 0.00145154, No Iterations 8
ExecutionTime = 1.74 s  ClockTime = 2 s

Time = 33

smoothSolver:  Solving for Ux, Initial residual = 0.0106305, Final residual = 0.000943829, No Iterations 9
smoothSolver:  Solving for Uy, Initial residual = 0.0190203, Final residual = 0.00172921, No Iterations 9
GAMG:  Solving for p, Initial residual = 0.0178732, Final residual = 0.00176784, No Iterations 3
time step continuity errors : sum local = 0.0989363, global = -0.0224795, cumulative = 1.17088
smoothSolver:  Solving for epsilon, Initial residual = 0.0164877, Final residual = 0.00154494, No Iterations 6
smoothSolver:  Solving for k, Initial residual = 0.0182676, Final residual = 0.00141552, No Iterations 8
ExecutionTime = 1.79 s  ClockTime = 2 s

Time = 34

smoothSolver:  Solving for Ux, Initial residual = 0.010438, Final residual = 0.000925165, No Iterations 9
smoothSolver:  Solving for Uy, Initial residual = 0.01881, Final residual = 0.00170587, No Iterations 9
GAMG:  Solving for p, Initial residual = 0.0170161, Final residual = 0.00136327, No Iterations 4
time step continuity errors : sum local = 0.0753033, global = -0.0186617, cumulative = 1.15222
smoothSolver:  Solving for epsilon, Initial residual = 0.0160996, Final residual = 0.00150187, No Iterations 6
smoothSolver:  Solving for k, Initial residual = 0.0179532, Final residual = 0.00137846, No Iterations 8
ExecutionTime = 1.84 s  ClockTime = 2 s

Time = 35

smoothSolver:  Solving for Ux, Initial residual = 0.0102528, Final residual = 0.000907435, No Iterations 9
smoothSolver:  Solving for Uy, Initial residual = 0.0185799, Final residual = 0.00168112, No Iterations 9
GAMG:  Solving for p, Initial residual = 0.0161176, Final residual = 0.00130029, No Iterations 4
time step continuity errors : sum local = 0.070887, global = -0.0182115, cumulative = 1.134
smoothSolver:  Solving for epsilon, Initial residual = 0.0157019, Final residual = 0.00145946, No Iterations 6
smoothSolver:  Solving for k, Initial residual = 0.0176679, Final residual = 0.00134389, No Iterations 8
ExecutionTime = 1.9 s  ClockTime = 2 s

Time = 36

smoothSolver:  Solving for Ux, Initial residual = 0.010069, Final residual = 0.000889838, No Iterations 9
smoothSolver:  Solving for Uy, Initial residual = 0.0183739, Final residual = 0.00165841, No Iterations 9
GAMG:  Solving for p, Initial residual = 0.0155321, Final residual = 0.00128644, No Iterations 4
time step continuity errors : sum local = 0.0692439, global = -0.0178015, cumulative = 1.1162
smoothSolver:  Solving for epsilon, Initial residual = 0.015353, Final residual = 0.00141853, No Iterations 6
smoothSolver:  Solving for k, Initial residual = 0.0173697, Final residual = 0.00173318, No Iterations 7
ExecutionTime = 1.94 s  ClockTime = 2 s

Time = 37

smoothSolver:  Solving for Ux, Initial residual = 0.00989935, Final residual = 0.000873302, No Iterations 9
smoothSolver:  Solving for Uy, Initial residual = 0.0181667, Final residual = 0.0016361, No Iterations 9
GAMG:  Solving for p, Initial residual = 0.0148855, Final residual = 0.00129353, No Iterations 4
time step continuity errors : sum local = 0.0687984, global = -0.017706, cumulative = 1.0985
smoothSolver:  Solving for epsilon, Initial residual = 0.0149801, Final residual = 0.00137901, No Iterations 6
smoothSolver:  Solving for k, Initial residual = 0.017117, Final residual = 0.0016987, No Iterations 7
ExecutionTime = 1.99 s  ClockTime = 2 s

Time = 38

smoothSolver:  Solving for Ux, Initial residual = 0.00973452, Final residual = 0.000857267, No Iterations 9
smoothSolver:  Solving for Uy, Initial residual = 0.0179424, Final residual = 0.00161221, No Iterations 9
GAMG:  Solving for p, Initial residual = 0.0142964, Final residual = 0.00131844, No Iterations 4
time step continuity errors : sum local = 0.0693694, global = -0.0179154, cumulative = 1.08058
smoothSolver:  Solving for epsilon, Initial residual = 0.0146054, Final residual = 0.00133671, No Iterations 6
smoothSolver:  Solving for k, Initial residual = 0.0168558, Final residual = 0.00166112, No Iterations 7
ExecutionTime = 2.04 s  ClockTime = 2 s

Time = 39

smoothSolver:  Solving for Ux, Initial residual = 0.00957066, Final residual = 0.000841694, No Iterations 9
smoothSolver:  Solving for Uy, Initial residual = 0.0177123, Final residual = 0.00158797, No Iterations 9
GAMG:  Solving for p, Initial residual = 0.0137573, Final residual = 0.00135974, No Iterations 4
time step continuity errors : sum local = 0.0708351, global = -0.0183582, cumulative = 1.06222
smoothSolver:  Solving for epsilon, Initial residual = 0.0142463, Final residual = 0.00129915, No Iterations 6
smoothSolver:  Solving for k, Initial residual = 0.0165745, Final residual = 0.00162316, No Iterations 7
ExecutionTime = 2.08 s  ClockTime = 2 s

Time = 40

smoothSolver:  Solving for Ux, Initial residual = 0.00941151, Final residual = 0.000826413, No Iterations 9
smoothSolver:  Solving for Uy, Initial residual = 0.0174803, Final residual = 0.00156451, No Iterations 9
GAMG:  Solving for p, Initial residual = 0.0132659, Final residual = 0.00125193, No Iterations 5
time step continuity errors : sum local = 0.0646053, global = 0.0142628, cumulative = 1.07649
smoothSolver:  Solving for epsilon, Initial residual = 0.0138769, Final residual = 0.00126214, No Iterations 6
smoothSolver:  Solving for k, Initial residual = 0.0163454, Final residual = 0.00158926, No Iterations 7
ExecutionTime = 2.12 s  ClockTime = 3 s

Time = 41

smoothSolver:  Solving for Ux, Initial residual = 0.00925861, Final residual = 0.000811672, No Iterations 9
smoothSolver:  Solving for Uy, Initial residual = 0.0172399, Final residual = 0.00154068, No Iterations 9
GAMG:  Solving for p, Initial residual = 0.0124481, Final residual = 0.000941391, No Iterations 4
time step continuity errors : sum local = 0.0482249, global = 0.0100672, cumulative = 1.08655
smoothSolver:  Solving for epsilon, Initial residual = 0.0135589, Final residual = 0.00122873, No Iterations 6
smoothSolver:  Solving for k, Initial residual = 0.0161029, Final residual = 0.00155549, No Iterations 7
ExecutionTime = 2.17 s  ClockTime = 3 s

Time = 42

smoothSolver:  Solving for Ux, Initial residual = 0.00910305, Final residual = 0.000797214, No Iterations 9
smoothSolver:  Solving for Uy, Initial residual = 0.0169991, Final residual = 0.00151726, No Iterations 9
GAMG:  Solving for p, Initial residual = 0.0118334, Final residual = 0.000914281, No Iterations 4
time step continuity errors : sum local = 0.0464956, global = 0.0100828, cumulative = 1.09664
smoothSolver:  Solving for epsilon, Initial residual = 0.0132272, Final residual = 0.0011925, No Iterations 6
smoothSolver:  Solving for k, Initial residual = 0.0158607, Final residual = 0.00152043, No Iterations 7
ExecutionTime = 2.21 s  ClockTime = 3 s

Time = 43

smoothSolver:  Solving for Ux, Initial residual = 0.00895445, Final residual = 0.000783339, No Iterations 9
smoothSolver:  Solving for Uy, Initial residual = 0.016766, Final residual = 0.00149471, No Iterations 9
GAMG:  Solving for p, Initial residual = 0.0114221, Final residual = 0.000951545, No Iterations 4
time step continuity errors : sum local = 0.048034, global = 0.0106313, cumulative = 1.10727
smoothSolver:  Solving for epsilon, Initial residual = 0.0128762, Final residual = 0.00115773, No Iterations 6
smoothSolver:  Solving for k, Initial residual = 0.0156098, Final residual = 0.00148649, No Iterations 7
ExecutionTime = 2.25 s  ClockTime = 3 s

Time = 44

smoothSolver:  Solving for Ux, Initial residual = 0.0088132, Final residual = 0.000770229, No Iterations 9
smoothSolver:  Solving for Uy, Initial residual = 0.0165218, Final residual = 0.00147163, No Iterations 9
GAMG:  Solving for p, Initial residual = 0.0110423, Final residual = 0.00100048, No Iterations 4
time step continuity errors : sum local = 0.0501079, global = 0.0114668, cumulative = 1.11873
smoothSolver:  Solving for epsilon, Initial residual = 0.0125623, Final residual = 0.00112317, No Iterations 6
smoothSolver:  Solving for k, Initial residual = 0.015378, Final residual = 0.0014547, No Iterations 7
ExecutionTime = 2.29 s  ClockTime = 3 s

Time = 45

smoothSolver:  Solving for Ux, Initial residual = 0.00867657, Final residual = 0.000757566, No Iterations 9
smoothSolver:  Solving for Uy, Initial residual = 0.0162693, Final residual = 0.00144788, No Iterations 9
GAMG:  Solving for p, Initial residual = 0.0106979, Final residual = 0.000757763, No Iterations 6
time step continuity errors : sum local = 0.0376509, global = 0.00812198, cumulative = 1.12686
smoothSolver:  Solving for epsilon, Initial residual = 0.0122266, Final residual = 0.00109019, No Iterations 6
smoothSolver:  Solving for k, Initial residual = 0.0151649, Final residual = 0.00142394, No Iterations 7
ExecutionTime = 2.34 s  ClockTime = 3 s

Time = 46

smoothSolver:  Solving for Ux, Initial residual = 0.00854421, Final residual = 0.000745243, No Iterations 9
smoothSolver:  Solving for Uy, Initial residual = 0.0160027, Final residual = 0.00142283, No Iterations 9
GAMG:  Solving for p, Initial residual = 0.010148, Final residual = 0.000911026, No Iterations 4
time step continuity errors : sum local = 0.0447412, global = 0.0101724, cumulative = 1.13703
smoothSolver:  Solving for epsilon, Initial residual = 0.0119466, Final residual = 0.00106054, No Iterations 6
smoothSolver:  Solving for k, Initial residual = 0.0149267, Final residual = 0.00139193, No Iterations 7
ExecutionTime = 2.38 s  ClockTime = 3 s

Time = 47

smoothSolver:  Solving for Ux, Initial residual = 0.00841376, Final residual = 0.000733388, No Iterations 9
smoothSolver:  Solving for Uy, Initial residual = 0.0157712, Final residual = 0.00140109, No Iterations 9
GAMG:  Solving for p, Initial residual = 0.0100952, Final residual = 0.00073665, No Iterations 6
time step continuity errors : sum local = 0.0359546, global = 0.00834401, cumulative = 1.14537
smoothSolver:  Solving for epsilon, Initial residual = 0.0116711, Final residual = 0.00103122, No Iterations 6
smoothSolver:  Solving for k, Initial residual = 0.0147261, Final residual = 0.00136393, No Iterations 7
ExecutionTime = 2.43 s  ClockTime = 3 s

Time = 48

smoothSolver:  Solving for Ux, Initial residual = 0.00829106, Final residual = 0.000722063, No Iterations 9
smoothSolver:  Solving for Uy, Initial residual = 0.0155169, Final residual = 0.00137739, No Iterations 9
GAMG:  Solving for p, Initial residual = 0.0095892, Final residual = 0.000917707, No Iterations 5
time step continuity errors : sum local = 0.0443952, global = -0.00912294, cumulative = 1.13625
smoothSolver:  Solving for epsilon, Initial residual = 0.0113835, Final residual = 0.000999417, No Iterations 6
smoothSolver:  Solving for k, Initial residual = 0.014525, Final residual = 0.0013367, No Iterations 7
ExecutionTime = 2.48 s  ClockTime = 3 s

Time = 49

smoothSolver:  Solving for Ux, Initial residual = 0.00816663, Final residual = 0.000710645, No Iterations 9
smoothSolver:  Solving for Uy, Initial residual = 0.0152809, Final residual = 0.00135542, No Iterations 9
GAMG:  Solving for p, Initial residual = 0.00942497, Final residual = 0.000849155, No Iterations 5
time step continuity errors : sum local = 0.0407803, global = 0.00857233, cumulative = 1.14482
smoothSolver:  Solving for epsilon, Initial residual = 0.0111298, Final residual = 0.000974389, No Iterations 6
smoothSolver:  Solving for k, Initial residual = 0.0142969, Final residual = 0.00130523, No Iterations 7
ExecutionTime = 2.54 s  ClockTime = 3 s

Time = 50

smoothSolver:  Solving for Ux, Initial residual = 0.00804917, Final residual = 0.00069982, No Iterations 9
smoothSolver:  Solving for Uy, Initial residual = 0.0150489, Final residual = 0.0013337, No Iterations 9
GAMG:  Solving for p, Initial residual = 0.00914826, Final residual = 0.000895336, No Iterations 5
time step continuity errors : sum local = 0.0427531, global = -0.00940179, cumulative = 1.13542
smoothSolver:  Solving for epsilon, Initial residual = 0.0108509, Final residual = 0.000942285, No Iterations 6
smoothSolver:  Solving for k, Initial residual = 0.0140942, Final residual = 0.00127905, No Iterations 7
ExecutionTime = 2.6 s  ClockTime = 3 s

Time = 51

smoothSolver:  Solving for Ux, Initial residual = 0.00793079, Final residual = 0.000689157, No Iterations 9
smoothSolver:  Solving for Uy, Initial residual = 0.0148161, Final residual = 0.00131188, No Iterations 9
GAMG:  Solving for p, Initial residual = 0.00891502, Final residual = 0.000887881, No Iterations 5
time step continuity errors : sum local = 0.0421876, global = 0.00884045, cumulative = 1.14426
smoothSolver:  Solving for epsilon, Initial residual = 0.0106197, Final residual = 0.000919365, No Iterations 6
smoothSolver:  Solving for k, Initial residual = 0.0138966, Final residual = 0.00125336, No Iterations 7
ExecutionTime = 2.66 s  ClockTime = 3 s

Time = 52

smoothSolver:  Solving for Ux, Initial residual = 0.00781715, Final residual = 0.000678849, No Iterations 9
smoothSolver:  Solving for Uy, Initial residual = 0.0145932, Final residual = 0.00129088, No Iterations 9
GAMG:  Solving for p, Initial residual = 0.00866472, Final residual = 0.000724643, No Iterations 6
time step continuity errors : sum local = 0.034257, global = 0.00828217, cumulative = 1.15254
smoothSolver:  Solving for epsilon, Initial residual = 0.0103686, Final residual = 0.000892812, No Iterations 6
smoothSolver:  Solving for k, Initial residual = 0.0136907, Final residual = 0.00122727, No Iterations 7
ExecutionTime = 2.71 s  ClockTime = 3 s

Time = 53

smoothSolver:  Solving for Ux, Initial residual = 0.00770291, Final residual = 0.00066868, No Iterations 9
smoothSolver:  Solving for Uy, Initial residual = 0.014368, Final residual = 0.00126953, No Iterations 9
GAMG:  Solving for p, Initial residual = 0.00835317, Final residual = 0.000767923, No Iterations 6
time step continuity errors : sum local = 0.0361338, global = 0.00842545, cumulative = 1.16097
smoothSolver:  Solving for epsilon, Initial residual = 0.0101353, Final residual = 0.000868531, No Iterations 6
smoothSolver:  Solving for k, Initial residual = 0.013495, Final residual = 0.00120265, No Iterations 7
ExecutionTime = 2.76 s  ClockTime = 3 s

Time = 54

smoothSolver:  Solving for Ux, Initial residual = 0.0075888, Final residual = 0.000658397, No Iterations 9
smoothSolver:  Solving for Uy, Initial residual = 0.0141551, Final residual = 0.0012493, No Iterations 9
GAMG:  Solving for p, Initial residual = 0.00823252, Final residual = 0.000820142, No Iterations 6
time step continuity errors : sum local = 0.0383266, global = 0.00889287, cumulative = 1.16986
smoothSolver:  Solving for epsilon, Initial residual = 0.00991212, Final residual = 0.000844711, No Iterations 6
smoothSolver:  Solving for k, Initial residual = 0.0133062, Final residual = 0.00117839, No Iterations 7
ExecutionTime = 2.82 s  ClockTime = 3 s

Time = 55

smoothSolver:  Solving for Ux, Initial residual = 0.00747848, Final residual = 0.000648505, No Iterations 9
smoothSolver:  Solving for Uy, Initial residual = 0.0139434, Final residual = 0.00122876, No Iterations 9
GAMG:  Solving for p, Initial residual = 0.00809189, Final residual = 0.000794751, No Iterations 7
time step continuity errors : sum local = 0.0369048, global = -0.00820711, cumulative = 1.16165
smoothSolver:  Solving for epsilon, Initial residual = 0.00971024, Final residual = 0.000823191, No Iterations 6
smoothSolver:  Solving for k, Initial residual = 0.0131172, Final residual = 0.00115483, No Iterations 7
ExecutionTime = 2.87 s  ClockTime = 3 s

Time = 56

smoothSolver:  Solving for Ux, Initial residual = 0.00737042, Final residual = 0.00063879, No Iterations 9
smoothSolver:  Solving for Uy, Initial residual = 0.0137262, Final residual = 0.00120778, No Iterations 9
GAMG:  Solving for p, Initial residual = 0.00781927, Final residual = 0.000665351, No Iterations 6
time step continuity errors : sum local = 0.0306692, global = -0.00739272, cumulative = 1.15426
smoothSolver:  Solving for epsilon, Initial residual = 0.00948016, Final residual = 0.000799121, No Iterations 6
smoothSolver:  Solving for k, Initial residual = 0.0129399, Final residual = 0.00113279, No Iterations 7
ExecutionTime = 2.92 s  ClockTime = 3 s

Time = 57

smoothSolver:  Solving for Ux, Initial residual = 0.00726328, Final residual = 0.000629182, No Iterations 9
smoothSolver:  Solving for Uy, Initial residual = 0.0135215, Final residual = 0.00118839, No Iterations 9
GAMG:  Solving for p, Initial residual = 0.00759296, Final residual = 0.000710871, No Iterations 6
time step continuity errors : sum local = 0.0326013, global = -0.00793921, cumulative = 1.14632
smoothSolver:  Solving for epsilon, Initial residual = 0.00931397, Final residual = 0.00078233, No Iterations 6
smoothSolver:  Solving for k, Initial residual = 0.012751, Final residual = 0.0011108, No Iterations 7
ExecutionTime = 2.98 s  ClockTime = 3 s

Time = 58

smoothSolver:  Solving for Ux, Initial residual = 0.00715584, Final residual = 0.000619463, No Iterations 9
smoothSolver:  Solving for Uy, Initial residual = 0.0133222, Final residual = 0.00116972, No Iterations 9
GAMG:  Solving for p, Initial residual = 0.00750682, Final residual = 0.000723777, No Iterations 7
time step continuity errors : sum local = 0.0330288, global = 0.00757528, cumulative = 1.1539
smoothSolver:  Solving for epsilon, Initial residual = 0.00912925, Final residual = 0.000761023, No Iterations 6
smoothSolver:  Solving for k, Initial residual = 0.0125729, Final residual = 0.00109145, No Iterations 7
ExecutionTime = 3.03 s  ClockTime = 3 s

Time = 59

smoothSolver:  Solving for Ux, Initial residual = 0.00704811, Final residual = 0.000609777, No Iterations 9
smoothSolver:  Solving for Uy, Initial residual = 0.0131215, Final residual = 0.00115096, No Iterations 9
GAMG:  Solving for p, Initial residual = 0.00728844, Final residual = 0.000727156, No Iterations 6
time step continuity errors : sum local = 0.0330119, global = 0.0080223, cumulative = 1.16192
smoothSolver:  Solving for epsilon, Initial residual = 0.00895557, Final residual = 0.000743944, No Iterations 6
smoothSolver:  Solving for k, Initial residual = 0.0124014, Final residual = 0.00107001, No Iterations 7
ExecutionTime = 3.08 s  ClockTime = 4 s

Time = 60

smoothSolver:  Solving for Ux, Initial residual = 0.00693607, Final residual = 0.000599823, No Iterations 9
smoothSolver:  Solving for Uy, Initial residual = 0.0129262, Final residual = 0.00113311, No Iterations 9
GAMG:  Solving for p, Initial residual = 0.00728797, Final residual = 0.000606552, No Iterations 8
time step continuity errors : sum local = 0.0273838, global = 0.00617813, cumulative = 1.1681
smoothSolver:  Solving for epsilon, Initial residual = 0.00876838, Final residual = 0.000722414, No Iterations 6
smoothSolver:  Solving for k, Initial residual = 0.0122421, Final residual = 0.0010528, No Iterations 7
ExecutionTime = 3.14 s  ClockTime = 4 s

Time = 61

smoothSolver:  Solving for Ux, Initial residual = 0.00682905, Final residual = 0.000590258, No Iterations 9
smoothSolver:  Solving for Uy, Initial residual = 0.0127204, Final residual = 0.00111405, No Iterations 9
GAMG:  Solving for p, Initial residual = 0.00699346, Final residual = 0.000518441, No Iterations 8
time step continuity errors : sum local = 0.0232273, global = 0.00496883, cumulative = 1.17307
smoothSolver:  Solving for epsilon, Initial residual = 0.00862889, Final residual = 0.000708975, No Iterations 6
smoothSolver:  Solving for k, Initial residual = 0.0120785, Final residual = 0.00103233, No Iterations 7
ExecutionTime = 3.2 s  ClockTime = 4 s

Time = 62

smoothSolver:  Solving for Ux, Initial residual = 0.00672372, Final residual = 0.000581031, No Iterations 9
smoothSolver:  Solving for Uy, Initial residual = 0.0125269, Final residual = 0.00109603, No Iterations 9
GAMG:  Solving for p, Initial residual = 0.0068423, Final residual = 0.000667064, No Iterations 6
time step continuity errors : sum local = 0.0297412, global = 0.00721967, cumulative = 1.18029
smoothSolver:  Solving for epsilon, Initial residual = 0.00845596, Final residual = 0.00069049, No Iterations 6
smoothSolver:  Solving for k, Initial residual = 0.0119305, Final residual = 0.00101533, No Iterations 7
ExecutionTime = 3.25 s  ClockTime = 4 s

Time = 63

smoothSolver:  Solving for Ux, Initial residual = 0.006617, Final residual = 0.000571692, No Iterations 9
smoothSolver:  Solving for Uy, Initial residual = 0.0123509, Final residual = 0.0010794, No Iterations 9
GAMG:  Solving for p, Initial residual = 0.0069233, Final residual = 0.000588283, No Iterations 8
time step continuity errors : sum local = 0.0261119, global = 0.00559177, cumulative = 1.18588
smoothSolver:  Solving for epsilon, Initial residual = 0.0083155, Final residual = 0.000679611, No Iterations 6
smoothSolver:  Solving for k, Initial residual = 0.0117862, Final residual = 0.000999269, No Iterations 7
ExecutionTime = 3.31 s  ClockTime = 4 s

Time = 64

smoothSolver:  Solving for Ux, Initial residual = 0.00650979, Final residual = 0.000562177, No Iterations 9
smoothSolver:  Solving for Uy, Initial residual = 0.0121594, Final residual = 0.00106101, No Iterations 9
GAMG:  Solving for p, Initial residual = 0.00668739, Final residual = 0.000526167, No Iterations 8
time step continuity errors : sum local = 0.0231491, global = 0.00505397, cumulative = 1.19093
smoothSolver:  Solving for epsilon, Initial residual = 0.00815696, Final residual = 0.000661474, No Iterations 6
smoothSolver:  Solving for k, Initial residual = 0.01164, Final residual = 0.000982346, No Iterations 7
ExecutionTime = 3.37 s  ClockTime = 4 s

Time = 65

smoothSolver:  Solving for Ux, Initial residual = 0.00640239, Final residual = 0.000552776, No Iterations 9
smoothSolver:  Solving for Uy, Initial residual = 0.0119793, Final residual = 0.00104356, No Iterations 9
GAMG:  Solving for p, Initial residual = 0.00657671, Final residual = 0.000509506, No Iterations 8
time step continuity errors : sum local = 0.0222712, global = 0.00487404, cumulative = 1.19581
smoothSolver:  Solving for epsilon, Initial residual = 0.00802479, Final residual = 0.00064816, No Iterations 6
smoothSolver:  Solving for k, Initial residual = 0.011503, Final residual = 0.000966755, No Iterations 7
ExecutionTime = 3.43 s  ClockTime = 4 s

Time = 66

smoothSolver:  Solving for Ux, Initial residual = 0.00629682, Final residual = 0.000543548, No Iterations 9
smoothSolver:  Solving for Uy, Initial residual = 0.0118067, Final residual = 0.00102666, No Iterations 9
GAMG:  Solving for p, Initial residual = 0.00648698, Final residual = 0.000508587, No Iterations 8
time step continuity errors : sum local = 0.022098, global = 0.00484296, cumulative = 1.20065
smoothSolver:  Solving for epsilon, Initial residual = 0.00788506, Final residual = 0.000632747, No Iterations 6
smoothSolver:  Solving for k, Initial residual = 0.0113735, Final residual = 0.000953252, No Iterations 7
ExecutionTime = 3.49 s  ClockTime = 4 s

Time = 67

smoothSolver:  Solving for Ux, Initial residual = 0.00619241, Final residual = 0.000534407, No Iterations 9
smoothSolver:  Solving for Uy, Initial residual = 0.0116374, Final residual = 0.00100998, No Iterations 9
GAMG:  Solving for p, Initial residual = 0.0064053, Final residual = 0.000506616, No Iterations 8
time step continuity errors : sum local = 0.0218849, global = 0.00479391, cumulative = 1.20544
smoothSolver:  Solving for epsilon, Initial residual = 0.00775181, Final residual = 0.00062063, No Iterations 6
smoothSolver:  Solving for k, Initial residual = 0.0112352, Final residual = 0.000939217, No Iterations 7
ExecutionTime = 3.55 s  ClockTime = 4 s

Time = 68

smoothSolver:  Solving for Ux, Initial residual = 0.00608852, Final residual = 0.000525294, No Iterations 9
smoothSolver:  Solving for Uy, Initial residual = 0.0114735, Final residual = 0.000993769, No Iterations 9
GAMG:  Solving for p, Initial residual = 0.00634179, Final residual = 0.000501852, No Iterations 8
time step continuity errors : sum local = 0.0215457, global = 0.00471871, cumulative = 1.21016
smoothSolver:  Solving for epsilon, Initial residual = 0.00762537, Final residual = 0.000608499, No Iterations 6
smoothSolver:  Solving for k, Initial residual = 0.0111149, Final residual = 0.000926945, No Iterations 7
ExecutionTime = 3.62 s  ClockTime = 4 s

Time = 69

smoothSolver:  Solving for Ux, Initial residual = 0.00598473, Final residual = 0.00051617, No Iterations 9
smoothSolver:  Solving for Uy, Initial residual = 0.0113167, Final residual = 0.000978374, No Iterations 9
GAMG:  Solving for p, Initial residual = 0.00626887, Final residual = 0.000497523, No Iterations 8
time step continuity errors : sum local = 0.0212232, global = 0.00465234, cumulative = 1.21481
smoothSolver:  Solving for epsilon, Initial residual = 0.00749121, Final residual = 0.000593739, No Iterations 6
smoothSolver:  Solving for k, Initial residual = 0.0109848, Final residual = 0.00091333, No Iterations 7
ExecutionTime = 3.67 s  ClockTime = 4 s

Time = 70

smoothSolver:  Solving for Ux, Initial residual = 0.00588128, Final residual = 0.000507081, No Iterations 9
smoothSolver:  Solving for Uy, Initial residual = 0.0111682, Final residual = 0.000963745, No Iterations 9
GAMG:  Solving for p, Initial residual = 0.00621376, Final residual = 0.000483076, No Iterations 8
time step continuity errors : sum local = 0.0204675, global = 0.00453647, cumulative = 1.21935
smoothSolver:  Solving for epsilon, Initial residual = 0.00739534, Final residual = 0.00058339, No Iterations 6
smoothSolver:  Solving for k, Initial residual = 0.0108734, Final residual = 0.000902127, No Iterations 7
ExecutionTime = 3.74 s  ClockTime = 4 s

Time = 71

smoothSolver:  Solving for Ux, Initial residual = 0.00578088, Final residual = 0.000498306, No Iterations 9
smoothSolver:  Solving for Uy, Initial residual = 0.0110465, Final residual = 0.000950645, No Iterations 9
GAMG:  Solving for p, Initial residual = 0.00703309, Final residual = 0.000649641, No Iterations 7
time step continuity errors : sum local = 0.0273761, global = -0.00595399, cumulative = 1.2134
smoothSolver:  Solving for epsilon, Initial residual = 0.00730013, Final residual = 0.000574099, No Iterations 6
smoothSolver:  Solving for k, Initial residual = 0.0107495, Final residual = 0.000889435, No Iterations 7
ExecutionTime = 3.79 s  ClockTime = 4 s

Time = 72

smoothSolver:  Solving for Ux, Initial residual = 0.00567935, Final residual = 0.000489404, No Iterations 9
smoothSolver:  Solving for Uy, Initial residual = 0.0109428, Final residual = 0.000938772, No Iterations 9
GAMG:  Solving for p, Initial residual = 0.00766039, Final residual = 0.000684578, No Iterations 6
time step continuity errors : sum local = 0.0286539, global = -0.00723284, cumulative = 1.20616
smoothSolver:  Solving for epsilon, Initial residual = 0.00718163, Final residual = 0.00056226, No Iterations 6
smoothSolver:  Solving for k, Initial residual = 0.0106401, Final residual = 0.00087935, No Iterations 7
ExecutionTime = 3.84 s  ClockTime = 4 s

Time = 73

smoothSolver:  Solving for Ux, Initial residual = 0.00557651, Final residual = 0.0004803, No Iterations 9
smoothSolver:  Solving for Uy, Initial residual = 0.0108276, Final residual = 0.00092653, No Iterations 9
GAMG:  Solving for p, Initial residual = 0.00711127, Final residual = 0.000691916, No Iterations 7
time step continuity errors : sum local = 0.0287092, global = 0.00653874, cumulative = 1.2127
smoothSolver:  Solving for epsilon, Initial residual = 0.00707645, Final residual = 0.000552245, No Iterations 6
smoothSolver:  Solving for k, Initial residual = 0.0105206, Final residual = 0.000867998, No Iterations 7
ExecutionTime = 3.89 s  ClockTime = 4 s

Time = 74

smoothSolver:  Solving for Ux, Initial residual = 0.00547632, Final residual = 0.000471448, No Iterations 9
smoothSolver:  Solving for Uy, Initial residual = 0.0107079, Final residual = 0.000915054, No Iterations 9
GAMG:  Solving for p, Initial residual = 0.00703576, Final residual = 0.000650089, No Iterations 7
time step continuity errors : sum local = 0.0268016, global = -0.00573181, cumulative = 1.20697
smoothSolver:  Solving for epsilon, Initial residual = 0.00696201, Final residual = 0.000541242, No Iterations 6
smoothSolver:  Solving for k, Initial residual = 0.0104145, Final residual = 0.00085794, No Iterations 7
ExecutionTime = 3.95 s  ClockTime = 4 s

Time = 75

smoothSolver:  Solving for Ux, Initial residual = 0.00537634, Final residual = 0.000462743, No Iterations 9
smoothSolver:  Solving for Uy, Initial residual = 0.0105982, Final residual = 0.000904986, No Iterations 9
GAMG:  Solving for p, Initial residual = 0.00755411, Final residual = 0.000747154, No Iterations 5
time step continuity errors : sum local = 0.030586, global = 0.00613065, cumulative = 1.2131
smoothSolver:  Solving for epsilon, Initial residual = 0.00685256, Final residual = 0.000531674, No Iterations 6
smoothSolver:  Solving for k, Initial residual = 0.0103046, Final residual = 0.000847202, No Iterations 7
ExecutionTime = 4.01 s  ClockTime = 4 s

Time = 76

smoothSolver:  Solving for Ux, Initial residual = 0.0052781, Final residual = 0.000454073, No Iterations 9
smoothSolver:  Solving for Uy, Initial residual = 0.0105052, Final residual = 0.000895847, No Iterations 9
GAMG:  Solving for p, Initial residual = 0.0074859, Final residual = 0.000735087, No Iterations 6
time step continuity errors : sum local = 0.0298893, global = 0.00790727, cumulative = 1.22101
smoothSolver:  Solving for epsilon, Initial residual = 0.00674175, Final residual = 0.000521253, No Iterations 6
smoothSolver:  Solving for k, Initial residual = 0.0101997, Final residual = 0.000837443, No Iterations 7
ExecutionTime = 4.07 s  ClockTime = 4 s

Time = 77

smoothSolver:  Solving for Ux, Initial residual = 0.00518176, Final residual = 0.000445631, No Iterations 9
smoothSolver:  Solving for Uy, Initial residual = 0.0104076, Final residual = 0.000886346, No Iterations 9
GAMG:  Solving for p, Initial residual = 0.00735802, Final residual = 0.0005592, No Iterations 8
time step continuity errors : sum local = 0.0226012, global = 0.00504013, cumulative = 1.22605
smoothSolver:  Solving for epsilon, Initial residual = 0.00669052, Final residual = 0.000513808, No Iterations 6
smoothSolver:  Solving for k, Initial residual = 0.0100911, Final residual = 0.00082808, No Iterations 7
ExecutionTime = 4.14 s  ClockTime = 5 s

Time = 78

smoothSolver:  Solving for Ux, Initial residual = 0.00508442, Final residual = 0.000437053, No Iterations 9
smoothSolver:  Solving for Uy, Initial residual = 0.0103457, Final residual = 0.000879438, No Iterations 9
GAMG:  Solving for p, Initial residual = 0.00910985, Final residual = 0.00084784, No Iterations 5
time step continuity errors : sum local = 0.033996, global = -0.00716302, cumulative = 1.21889
smoothSolver:  Solving for epsilon, Initial residual = 0.00657581, Final residual = 0.000504849, No Iterations 6
smoothSolver:  Solving for k, Initial residual = 0.00998729, Final residual = 0.000818593, No Iterations 7
ExecutionTime = 4.19 s  ClockTime = 5 s

Time = 79

smoothSolver:  Solving for Ux, Initial residual = 0.00499279, Final residual = 0.000429165, No Iterations 9
smoothSolver:  Solving for Uy, Initial residual = 0.0102934, Final residual = 0.000872376, No Iterations 9
GAMG:  Solving for p, Initial residual = 0.00944861, Final residual = 0.000812134, No Iterations 6
time step continuity errors : sum local = 0.0324946, global = -0.00830491, cumulative = 1.21058
smoothSolver:  Solving for epsilon, Initial residual = 0.00649046, Final residual = 0.000493555, No Iterations 6
smoothSolver:  Solving for k, Initial residual = 0.00988724, Final residual = 0.000809874, No Iterations 7
ExecutionTime = 4.23 s  ClockTime = 5 s

Time = 80

smoothSolver:  Solving for Ux, Initial residual = 0.00489835, Final residual = 0.000420879, No Iterations 9
smoothSolver:  Solving for Uy, Initial residual = 0.0102517, Final residual = 0.000866955, No Iterations 9
GAMG:  Solving for p, Initial residual = 0.0106221, Final residual = 0.00101621, No Iterations 5
time step continuity errors : sum local = 0.0404054, global = 0.00870786, cumulative = 1.21929
smoothSolver:  Solving for epsilon, Initial residual = 0.00638096, Final residual = 0.000486516, No Iterations 6
smoothSolver:  Solving for k, Initial residual = 0.0097947, Final residual = 0.000800939, No Iterations 7
ExecutionTime = 4.28 s  ClockTime = 5 s

Time = 81

smoothSolver:  Solving for Ux, Initial residual = 0.00480698, Final residual = 0.000412804, No Iterations 9
smoothSolver:  Solving for Uy, Initial residual = 0.0101974, Final residual = 0.000858705, No Iterations 9
GAMG:  Solving for p, Initial residual = 0.0101304, Final residual = 0.000977379, No Iterations 5
time step continuity errors : sum local = 0.0386693, global = -0.0080934, cumulative = 1.21119
smoothSolver:  Solving for epsilon, Initial residual = 0.00628718, Final residual = 0.000476204, No Iterations 6
smoothSolver:  Solving for k, Initial residual = 0.00969785, Final residual = 0.000792976, No Iterations 7
ExecutionTime = 4.33 s  ClockTime = 5 s

Time = 82

smoothSolver:  Solving for Ux, Initial residual = 0.00471379, Final residual = 0.000404809, No Iterations 9
smoothSolver:  Solving for Uy, Initial residual = 0.0101326, Final residual = 0.000852877, No Iterations 9
GAMG:  Solving for p, Initial residual = 0.010001, Final residual = 0.000942761, No Iterations 5
time step continuity errors : sum local = 0.0369989, global = 0.00758127, cumulative = 1.21878
smoothSolver:  Solving for epsilon, Initial residual = 0.00620528, Final residual = 0.000467067, No Iterations 6
smoothSolver:  Solving for k, Initial residual = 0.00959803, Final residual = 0.000783784, No Iterations 7
ExecutionTime = 4.37 s  ClockTime = 5 s

Time = 83

smoothSolver:  Solving for Ux, Initial residual = 0.00462531, Final residual = 0.000397005, No Iterations 9
smoothSolver:  Solving for Uy, Initial residual = 0.0100712, Final residual = 0.000847498, No Iterations 9
GAMG:  Solving for p, Initial residual = 0.0111527, Final residual = 0.000941384, No Iterations 5
time step continuity errors : sum local = 0.0366858, global = -0.00763866, cumulative = 1.21114
smoothSolver:  Solving for epsilon, Initial residual = 0.00610371, Final residual = 0.000460422, No Iterations 6
smoothSolver:  Solving for k, Initial residual = 0.00949981, Final residual = 0.000775686, No Iterations 7
ExecutionTime = 4.42 s  ClockTime = 5 s

Time = 84

smoothSolver:  Solving for Ux, Initial residual = 0.00453295, Final residual = 0.000389004, No Iterations 9
smoothSolver:  Solving for Uy, Initial residual = 0.0100051, Final residual = 0.00083996, No Iterations 9
GAMG:  Solving for p, Initial residual = 0.0106333, Final residual = 0.000929474, No Iterations 5
time step continuity errors : sum local = 0.0359408, global = 0.00770364, cumulative = 1.21884
smoothSolver:  Solving for epsilon, Initial residual = 0.0060054, Final residual = 0.000450918, No Iterations 6
smoothSolver:  Solving for k, Initial residual = 0.00939618, Final residual = 0.00076635, No Iterations 7
ExecutionTime = 4.47 s  ClockTime = 5 s

Time = 85

smoothSolver:  Solving for Ux, Initial residual = 0.00444853, Final residual = 0.000381645, No Iterations 9
smoothSolver:  Solving for Uy, Initial residual = 0.00995719, Final residual = 0.000835436, No Iterations 9
GAMG:  Solving for p, Initial residual = 0.0103848, Final residual = 0.00103355, No Iterations 4
time step continuity errors : sum local = 0.0398655, global = 0.0113536, cumulative = 1.23019
smoothSolver:  Solving for epsilon, Initial residual = 0.00592793, Final residual = 0.000445814, No Iterations 6
smoothSolver:  Solving for k, Initial residual = 0.00930041, Final residual = 0.000758798, No Iterations 7
ExecutionTime = 4.51 s  ClockTime = 5 s

Time = 86

smoothSolver:  Solving for Ux, Initial residual = 0.00436529, Final residual = 0.000374521, No Iterations 9
smoothSolver:  Solving for Uy, Initial residual = 0.00989263, Final residual = 0.000830894, No Iterations 9
GAMG:  Solving for p, Initial residual = 0.0105265, Final residual = 0.000904949, No Iterations 6
time step continuity errors : sum local = 0.0348574, global = 0.00841713, cumulative = 1.23861
smoothSolver:  Solving for epsilon, Initial residual = 0.00580576, Final residual = 0.000435704, No Iterations 6
smoothSolver:  Solving for k, Initial residual = 0.00921199, Final residual = 0.000751569, No Iterations 7
ExecutionTime = 4.56 s  ClockTime = 5 s

Time = 87

smoothSolver:  Solving for Ux, Initial residual = 0.00427903, Final residual = 0.000366994, No Iterations 9
smoothSolver:  Solving for Uy, Initial residual = 0.00984278, Final residual = 0.00082569, No Iterations 9
GAMG:  Solving for p, Initial residual = 0.00923345, Final residual = 0.000837169, No Iterations 6
time step continuity errors : sum local = 0.0320059, global = 0.00801294, cumulative = 1.24662
smoothSolver:  Solving for epsilon, Initial residual = 0.00571089, Final residual = 0.000427326, No Iterations 6
smoothSolver:  Solving for k, Initial residual = 0.00911731, Final residual = 0.000743378, No Iterations 7
ExecutionTime = 4.62 s  ClockTime = 5 s

Time = 88

smoothSolver:  Solving for Ux, Initial residual = 0.00419427, Final residual = 0.000359593, No Iterations 9
smoothSolver:  Solving for Uy, Initial residual = 0.00978643, Final residual = 0.000821186, No Iterations 9
GAMG:  Solving for p, Initial residual = 0.0100104, Final residual = 0.000975951, No Iterations 5
time step continuity errors : sum local = 0.0370476, global = -0.00853485, cumulative = 1.23809
smoothSolver:  Solving for epsilon, Initial residual = 0.00564741, Final residual = 0.000419199, No Iterations 6
smoothSolver:  Solving for k, Initial residual = 0.00902858, Final residual = 0.000736197, No Iterations 7
ExecutionTime = 4.66 s  ClockTime = 5 s

Time = 89

smoothSolver:  Solving for Ux, Initial residual = 0.00411288, Final residual = 0.000352568, No Iterations 9
smoothSolver:  Solving for Uy, Initial residual = 0.00978448, Final residual = 0.000818155, No Iterations 9
GAMG:  Solving for p, Initial residual = 0.0101233, Final residual = 0.000920615, No Iterations 5
time step continuity errors : sum local = 0.0347179, global = 0.00749144, cumulative = 1.24558
smoothSolver:  Solving for epsilon, Initial residual = 0.00556183, Final residual = 0.000411936, No Iterations 6
smoothSolver:  Solving for k, Initial residual = 0.00895395, Final residual = 0.00073013, No Iterations 7
ExecutionTime = 4.71 s  ClockTime = 5 s

Time = 90

smoothSolver:  Solving for Ux, Initial residual = 0.00403555, Final residual = 0.000345798, No Iterations 9
smoothSolver:  Solving for Uy, Initial residual = 0.00976271, Final residual = 0.000814078, No Iterations 9
GAMG:  Solving for p, Initial residual = 0.0101166, Final residual = 0.000892704, No Iterations 5
time step continuity errors : sum local = 0.0334989, global = -0.00709338, cumulative = 1.23849
smoothSolver:  Solving for epsilon, Initial residual = 0.0054797, Final residual = 0.0004051, No Iterations 6
smoothSolver:  Solving for k, Initial residual = 0.00886217, Final residual = 0.000722635, No Iterations 7
ExecutionTime = 4.77 s  ClockTime = 5 s

Time = 91

smoothSolver:  Solving for Ux, Initial residual = 0.00395654, Final residual = 0.000338917, No Iterations 9
smoothSolver:  Solving for Uy, Initial residual = 0.00969214, Final residual = 0.000810597, No Iterations 9
GAMG:  Solving for p, Initial residual = 0.00994978, Final residual = 0.000860964, No Iterations 5
time step continuity errors : sum local = 0.0320656, global = 0.00694481, cumulative = 1.24543
smoothSolver:  Solving for epsilon, Initial residual = 0.0053885, Final residual = 0.00039755, No Iterations 6
smoothSolver:  Solving for k, Initial residual = 0.00877034, Final residual = 0.000714771, No Iterations 7
ExecutionTime = 4.82 s  ClockTime = 5 s

Time = 92

smoothSolver:  Solving for Ux, Initial residual = 0.0038828, Final residual = 0.000332523, No Iterations 9
smoothSolver:  Solving for Uy, Initial residual = 0.00964227, Final residual = 0.00080643, No Iterations 9
GAMG:  Solving for p, Initial residual = 0.00899638, Final residual = 0.000869028, No Iterations 5
time step continuity errors : sum local = 0.0322374, global = -0.00683607, cumulative = 1.2386
smoothSolver:  Solving for epsilon, Initial residual = 0.00529562, Final residual = 0.00038964, No Iterations 6
smoothSolver:  Solving for k, Initial residual = 0.00868816, Final residual = 0.000708248, No Iterations 7
ExecutionTime = 4.88 s  ClockTime = 5 s

Time = 93

smoothSolver:  Solving for Ux, Initial residual = 0.00380458, Final residual = 0.000325729, No Iterations 9
smoothSolver:  Solving for Uy, Initial residual = 0.00961541, Final residual = 0.000803989, No Iterations 9
GAMG:  Solving for p, Initial residual = 0.00965053, Final residual = 0.000868343, No Iterations 5
time step continuity errors : sum local = 0.0319544, global = 0.00694953, cumulative = 1.24555
smoothSolver:  Solving for epsilon, Initial residual = 0.00522879, Final residual = 0.000383951, No Iterations 6
smoothSolver:  Solving for k, Initial residual = 0.00859944, Final residual = 0.000699901, No Iterations 7
ExecutionTime = 4.93 s  ClockTime = 5 s

Time = 94

smoothSolver:  Solving for Ux, Initial residual = 0.00373297, Final residual = 0.000319435, No Iterations 9
smoothSolver:  Solving for Uy, Initial residual = 0.00960693, Final residual = 0.000801054, No Iterations 9
GAMG:  Solving for p, Initial residual = 0.0112383, Final residual = 0.0010843, No Iterations 4
time step continuity errors : sum local = 0.0397334, global = 0.0112259, cumulative = 1.25677
smoothSolver:  Solving for epsilon, Initial residual = 0.00516554, Final residual = 0.000375996, No Iterations 6
smoothSolver:  Solving for k, Initial residual = 0.00851911, Final residual = 0.000694205, No Iterations 7
ExecutionTime = 4.97 s  ClockTime = 5 s

Time = 95

smoothSolver:  Solving for Ux, Initial residual = 0.00366025, Final residual = 0.000313088, No Iterations 9
smoothSolver:  Solving for Uy, Initial residual = 0.00957893, Final residual = 0.000797229, No Iterations 9
GAMG:  Solving for p, Initial residual = 0.0102571, Final residual = 0.000893783, No Iterations 6
time step continuity errors : sum local = 0.0325411, global = 0.0082012, cumulative = 1.26497
smoothSolver:  Solving for epsilon, Initial residual = 0.00507318, Final residual = 0.000368786, No Iterations 6
smoothSolver:  Solving for k, Initial residual = 0.00843665, Final residual = 0.000686815, No Iterations 7
ExecutionTime = 5.02 s  ClockTime = 5 s

Time = 96

smoothSolver:  Solving for Ux, Initial residual = 0.00358843, Final residual = 0.000306885, No Iterations 9
smoothSolver:  Solving for Uy, Initial residual = 0.00953408, Final residual = 0.000794321, No Iterations 9
GAMG:  Solving for p, Initial residual = 0.00944701, Final residual = 0.00082702, No Iterations 6
time step continuity errors : sum local = 0.0298817, global = 0.00821168, cumulative = 1.27319
smoothSolver:  Solving for epsilon, Initial residual = 0.00498914, Final residual = 0.000363224, No Iterations 6
smoothSolver:  Solving for k, Initial residual = 0.00835119, Final residual = 0.000680298, No Iterations 7
ExecutionTime = 5.07 s  ClockTime = 5 s

Time = 97

smoothSolver:  Solving for Ux, Initial residual = 0.00352011, Final residual = 0.000300984, No Iterations 9
smoothSolver:  Solving for Uy, Initial residual = 0.00949813, Final residual = 0.000791844, No Iterations 9
GAMG:  Solving for p, Initial residual = 0.00938727, Final residual = 0.000846143, No Iterations 6
time step continuity errors : sum local = 0.0304154, global = 0.00815038, cumulative = 1.28134
smoothSolver:  Solving for epsilon, Initial residual = 0.00491791, Final residual = 0.000357377, No Iterations 6
smoothSolver:  Solving for k, Initial residual = 0.00827509, Final residual = 0.000673157, No Iterations 7
ExecutionTime = 5.12 s  ClockTime = 6 s

Time = 98

smoothSolver:  Solving for Ux, Initial residual = 0.00344974, Final residual = 0.00029486, No Iterations 9
smoothSolver:  Solving for Uy, Initial residual = 0.00945657, Final residual = 0.000789357, No Iterations 9
GAMG:  Solving for p, Initial residual = 0.00995579, Final residual = 0.000958108, No Iterations 5
time step continuity errors : sum local = 0.034198, global = -0.00773429, cumulative = 1.2736
smoothSolver:  Solving for epsilon, Initial residual = 0.00487327, Final residual = 0.000485647, No Iterations 5
smoothSolver:  Solving for k, Initial residual = 0.00820081, Final residual = 0.000669336, No Iterations 7
ExecutionTime = 5.16 s  ClockTime = 6 s

Time = 99

smoothSolver:  Solving for Ux, Initial residual = 0.00338416, Final residual = 0.000289183, No Iterations 9
smoothSolver:  Solving for Uy, Initial residual = 0.00946446, Final residual = 0.000788424, No Iterations 9
GAMG:  Solving for p, Initial residual = 0.0103874, Final residual = 0.0009393, No Iterations 5
time step continuity errors : sum local = 0.0332373, global = 0.00708634, cumulative = 1.28069
smoothSolver:  Solving for epsilon, Initial residual = 0.00479004, Final residual = 0.000345006, No Iterations 6
smoothSolver:  Solving for k, Initial residual = 0.00812392, Final residual = 0.000662567, No Iterations 7
ExecutionTime = 5.21 s  ClockTime = 6 s

Time = 100

smoothSolver:  Solving for Ux, Initial residual = 0.00332094, Final residual = 0.000283559, No Iterations 9
smoothSolver:  Solving for Uy, Initial residual = 0.00941432, Final residual = 0.000784973, No Iterations 9
GAMG:  Solving for p, Initial residual = 0.00899007, Final residual = 0.000753825, No Iterations 6
time step continuity errors : sum local = 0.026475, global = 0.00721061, cumulative = 1.2879
smoothSolver:  Solving for epsilon, Initial residual = 0.00473576, Final residual = 0.000341916, No Iterations 6
smoothSolver:  Solving for k, Initial residual = 0.00804258, Final residual = 0.00065585, No Iterations 7
ExecutionTime = 5.3 s  ClockTime = 6 s

streamLine streamlines write:
    seeded 10 particles
    Tracks:20
    Total samples:24165
    Writing data to "/home/ubuntu/OpenFOAM/ubuntu-7/run/pd-ref/postProcessing/sets/streamlines/100"
Time = 101

smoothSolver:  Solving for Ux, Initial residual = 0.00325657, Final residual = 0.00027808, No Iterations 9
smoothSolver:  Solving for Uy, Initial residual = 0.00937949, Final residual = 0.000782997, No Iterations 9
GAMG:  Solving for p, Initial residual = 0.00991411, Final residual = 0.00092975, No Iterations 5
time step continuity errors : sum local = 0.0325779, global = -0.00727727, cumulative = 1.28062
smoothSolver:  Solving for epsilon, Initial residual = 0.00466369, Final residual = 0.000464341, No Iterations 5
smoothSolver:  Solving for k, Initial residual = 0.00797321, Final residual = 0.000649349, No Iterations 7
ExecutionTime = 5.55 s  ClockTime = 6 s

Time = 102

smoothSolver:  Solving for Ux, Initial residual = 0.00319263, Final residual = 0.00027262, No Iterations 9
smoothSolver:  Solving for Uy, Initial residual = 0.00936176, Final residual = 0.000781091, No Iterations 9
GAMG:  Solving for p, Initial residual = 0.00935562, Final residual = 0.000911688, No Iterations 5
time step continuity errors : sum local = 0.0317003, global = 0.00688322, cumulative = 1.2875
smoothSolver:  Solving for epsilon, Initial residual = 0.00461184, Final residual = 0.000459172, No Iterations 5
smoothSolver:  Solving for k, Initial residual = 0.00790795, Final residual = 0.00064609, No Iterations 7
ExecutionTime = 5.59 s  ClockTime = 6 s

Time = 103

smoothSolver:  Solving for Ux, Initial residual = 0.00313018, Final residual = 0.00026702, No Iterations 9
smoothSolver:  Solving for Uy, Initial residual = 0.0093635, Final residual = 0.000780242, No Iterations 9
GAMG:  Solving for p, Initial residual = 0.00906683, Final residual = 0.000758645, No Iterations 6
time step continuity errors : sum local = 0.0260621, global = 0.00730658, cumulative = 1.29481
smoothSolver:  Solving for epsilon, Initial residual = 0.00455018, Final residual = 0.000327841, No Iterations 6
smoothSolver:  Solving for k, Initial residual = 0.00782008, Final residual = 0.000637897, No Iterations 7
ExecutionTime = 5.65 s  ClockTime = 6 s

Time = 104

smoothSolver:  Solving for Ux, Initial residual = 0.00307189, Final residual = 0.000261926, No Iterations 9
smoothSolver:  Solving for Uy, Initial residual = 0.00936909, Final residual = 0.0007777, No Iterations 9
GAMG:  Solving for p, Initial residual = 0.0100006, Final residual = 0.000944835, No Iterations 5
time step continuity errors : sum local = 0.0323763, global = -0.00710585, cumulative = 1.2877
smoothSolver:  Solving for epsilon, Initial residual = 0.00451069, Final residual = 0.000448803, No Iterations 5
smoothSolver:  Solving for k, Initial residual = 0.00774512, Final residual = 0.000632645, No Iterations 7
ExecutionTime = 5.69 s  ClockTime = 6 s

Time = 105

smoothSolver:  Solving for Ux, Initial residual = 0.0030136, Final residual = 0.000256893, No Iterations 9
smoothSolver:  Solving for Uy, Initial residual = 0.00934216, Final residual = 0.000775945, No Iterations 9
GAMG:  Solving for p, Initial residual = 0.00954105, Final residual = 0.000908879, No Iterations 5
time step continuity errors : sum local = 0.0309141, global = 0.00686924, cumulative = 1.29457
smoothSolver:  Solving for epsilon, Initial residual = 0.00441831, Final residual = 0.000438881, No Iterations 5
smoothSolver:  Solving for k, Initial residual = 0.00767275, Final residual = 0.000627535, No Iterations 7
ExecutionTime = 5.73 s  ClockTime = 6 s

Time = 106

smoothSolver:  Solving for Ux, Initial residual = 0.00295741, Final residual = 0.000251967, No Iterations 9
smoothSolver:  Solving for Uy, Initial residual = 0.00930572, Final residual = 0.00077551, No Iterations 9
GAMG:  Solving for p, Initial residual = 0.00958732, Final residual = 0.00091221, No Iterations 5
time step continuity errors : sum local = 0.0307535, global = -0.00694418, cumulative = 1.28763
smoothSolver:  Solving for epsilon, Initial residual = 0.00436732, Final residual = 0.000435695, No Iterations 5
smoothSolver:  Solving for k, Initial residual = 0.00760357, Final residual = 0.000622532, No Iterations 7
ExecutionTime = 5.78 s  ClockTime = 6 s

Time = 107

smoothSolver:  Solving for Ux, Initial residual = 0.00290339, Final residual = 0.000247358, No Iterations 9
smoothSolver:  Solving for Uy, Initial residual = 0.00932027, Final residual = 0.00077455, No Iterations 9
GAMG:  Solving for p, Initial residual = 0.0110091, Final residual = 0.000929633, No Iterations 5
time step continuity errors : sum local = 0.0311872, global = 0.00669834, cumulative = 1.29433
smoothSolver:  Solving for epsilon, Initial residual = 0.00436486, Final residual = 0.000433054, No Iterations 5
smoothSolver:  Solving for k, Initial residual = 0.00754066, Final residual = 0.000616337, No Iterations 7
ExecutionTime = 5.82 s  ClockTime = 6 s

Time = 108

smoothSolver:  Solving for Ux, Initial residual = 0.00285251, Final residual = 0.000242907, No Iterations 9
smoothSolver:  Solving for Uy, Initial residual = 0.00934047, Final residual = 0.000773336, No Iterations 9
GAMG:  Solving for p, Initial residual = 0.0106212, Final residual = 0.000986521, No Iterations 4
time step continuity errors : sum local = 0.0331362, global = 0.00955035, cumulative = 1.30388
smoothSolver:  Solving for epsilon, Initial residual = 0.00428357, Final residual = 0.000424651, No Iterations 5
smoothSolver:  Solving for k, Initial residual = 0.00746541, Final residual = 0.000613025, No Iterations 7
ExecutionTime = 5.86 s  ClockTime = 6 s

Time = 109

smoothSolver:  Solving for Ux, Initial residual = 0.00280335, Final residual = 0.0002385, No Iterations 9
smoothSolver:  Solving for Uy, Initial residual = 0.00930931, Final residual = 0.000772443, No Iterations 9
GAMG:  Solving for p, Initial residual = 0.0104665, Final residual = 0.000896798, No Iterations 6
time step continuity errors : sum local = 0.0297569, global = 0.00723096, cumulative = 1.31111
smoothSolver:  Solving for epsilon, Initial residual = 0.00420995, Final residual = 0.000418899, No Iterations 5
smoothSolver:  Solving for k, Initial residual = 0.00739537, Final residual = 0.00060843, No Iterations 7
ExecutionTime = 5.91 s  ClockTime = 6 s

Time = 110

smoothSolver:  Solving for Ux, Initial residual = 0.00275057, Final residual = 0.000233913, No Iterations 9
smoothSolver:  Solving for Uy, Initial residual = 0.00930721, Final residual = 0.000772192, No Iterations 9
GAMG:  Solving for p, Initial residual = 0.0104459, Final residual = 0.0010419, No Iterations 5
time step continuity errors : sum local = 0.0341818, global = -0.00795159, cumulative = 1.30316
smoothSolver:  Solving for epsilon, Initial residual = 0.00424594, Final residual = 0.000422626, No Iterations 5
smoothSolver:  Solving for k, Initial residual = 0.00733384, Final residual = 0.000601135, No Iterations 7
ExecutionTime = 5.95 s  ClockTime = 6 s

Time = 111

smoothSolver:  Solving for Ux, Initial residual = 0.00270145, Final residual = 0.000229907, No Iterations 9
smoothSolver:  Solving for Uy, Initial residual = 0.00930675, Final residual = 0.000772815, No Iterations 9
GAMG:  Solving for p, Initial residual = 0.0116802, Final residual = 0.000962079, No Iterations 5
time step continuity errors : sum local = 0.0318083, global = 0.00660894, cumulative = 1.30977
smoothSolver:  Solving for epsilon, Initial residual = 0.00415988, Final residual = 0.000411946, No Iterations 5
smoothSolver:  Solving for k, Initial residual = 0.00724271, Final residual = 0.000596705, No Iterations 7
ExecutionTime = 6.01 s  ClockTime = 6 s

Time = 112

smoothSolver:  Solving for Ux, Initial residual = 0.00265821, Final residual = 0.000225743, No Iterations 9
smoothSolver:  Solving for Uy, Initial residual = 0.00929899, Final residual = 0.000770882, No Iterations 9
GAMG:  Solving for p, Initial residual = 0.00974753, Final residual = 0.000931353, No Iterations 5
time step continuity errors : sum local = 0.0301836, global = -0.0070673, cumulative = 1.3027
smoothSolver:  Solving for epsilon, Initial residual = 0.00403443, Final residual = 0.000290844, No Iterations 6
smoothSolver:  Solving for k, Initial residual = 0.0071697, Final residual = 0.000591577, No Iterations 7
ExecutionTime = 6.05 s  ClockTime = 6 s

Time = 113

smoothSolver:  Solving for Ux, Initial residual = 0.00261297, Final residual = 0.000221932, No Iterations 9
smoothSolver:  Solving for Uy, Initial residual = 0.00932101, Final residual = 0.000773616, No Iterations 9
GAMG:  Solving for p, Initial residual = 0.0104267, Final residual = 0.00094328, No Iterations 5
time step continuity errors : sum local = 0.0302891, global = 0.00651293, cumulative = 1.30921
smoothSolver:  Solving for epsilon, Initial residual = 0.00406267, Final residual = 0.000404347, No Iterations 5
smoothSolver:  Solving for k, Initial residual = 0.00709358, Final residual = 0.000583133, No Iterations 7
ExecutionTime = 6.09 s  ClockTime = 7 s

Time = 114

smoothSolver:  Solving for Ux, Initial residual = 0.00256817, Final residual = 0.000218293, No Iterations 9
smoothSolver:  Solving for Uy, Initial residual = 0.009356, Final residual = 0.000774985, No Iterations 9
GAMG:  Solving for p, Initial residual = 0.0127563, Final residual = 0.0012692, No Iterations 3
time step continuity errors : sum local = 0.0411218, global = -0.00837873, cumulative = 1.30083
smoothSolver:  Solving for epsilon, Initial residual = 0.00400947, Final residual = 0.000394034, No Iterations 5
smoothSolver:  Solving for k, Initial residual = 0.00702054, Final residual = 0.00058014, No Iterations 7
ExecutionTime = 6.13 s  ClockTime = 7 s

Time = 115

smoothSolver:  Solving for Ux, Initial residual = 0.00253163, Final residual = 0.000215007, No Iterations 9
smoothSolver:  Solving for Uy, Initial residual = 0.00931996, Final residual = 0.000772664, No Iterations 9
GAMG:  Solving for p, Initial residual = 0.0107928, Final residual = 0.000988198, No Iterations 6
time step continuity errors : sum local = 0.031655, global = -0.00854592, cumulative = 1.29229
smoothSolver:  Solving for epsilon, Initial residual = 0.00387252, Final residual = 0.000277953, No Iterations 6
smoothSolver:  Solving for k, Initial residual = 0.00693209, Final residual = 0.000574154, No Iterations 7
ExecutionTime = 6.19 s  ClockTime = 7 s

Time = 116

smoothSolver:  Solving for Ux, Initial residual = 0.00249025, Final residual = 0.000211195, No Iterations 9
[...]
GAMG:  Solving for p, Initial residual = 0.0226207, Final residual = 0.00203988, No Iterations 1
time step continuity errors : sum local = 0.0508774, global = 0.000100501, cumulative = 1.12217
smoothSolver:  Solving for epsilon, Initial residual = 0.00108098, Final residual = 7.65942e-05, No Iterations 5
smoothSolver:  Solving for k, Initial residual = 0.000186854, Final residual = 1.50186e-05, No Iterations 6
ExecutionTime = 66.08 s  ClockTime = 67 s

Time = 1973

smoothSolver:  Solving for Ux, Initial residual = 6.76345e-05, Final residual = 9.9103e-06, No Iterations 3
smoothSolver:  Solving for Uy, Initial residual = 0.00061805, Final residual = 6.03983e-05, No Iterations 5
GAMG:  Solving for p, Initial residual = 0.029082, Final residual = 0.00245342, No Iterations 1
time step continuity errors : sum local = 0.0594753, global = 7.73689e-05, cumulative = 1.12225
smoothSolver:  Solving for epsilon, Initial residual = 0.00216462, Final residual = 0.00019642, No Iterations 4
smoothSolver:  Solving for k, Initial residual = 0.000269208, Final residual = 2.00709e-05, No Iterations 6
ExecutionTime = 66.12 s  ClockTime = 67 s

Time = 1974

smoothSolver:  Solving for Ux, Initial residual = 5.74903e-05, Final residual = 8.33485e-06, No Iterations 3
smoothSolver:  Solving for Uy, Initial residual = 0.000661816, Final residual = 6.27585e-05, No Iterations 5
GAMG:  Solving for p, Initial residual = 0.0271878, Final residual = 0.00163969, No Iterations 1
time step continuity errors : sum local = 0.0420999, global = -0.000210371, cumulative = 1.12204
smoothSolver:  Solving for epsilon, Initial residual = 0.00100824, Final residual = 6.4923e-05, No Iterations 4
smoothSolver:  Solving for k, Initial residual = 0.000220306, Final residual = 2.07172e-05, No Iterations 3
ExecutionTime = 66.15 s  ClockTime = 67 s

Time = 1975

smoothSolver:  Solving for Ux, Initial residual = 4.16141e-05, Final residual = 9.40739e-06, No Iterations 2
smoothSolver:  Solving for Uy, Initial residual = 0.000584284, Final residual = 5.3637e-05, No Iterations 5
GAMG:  Solving for p, Initial residual = 0.0215307, Final residual = 0.00196045, No Iterations 1
time step continuity errors : sum local = 0.0485604, global = 9.43725e-05, cumulative = 1.12213
smoothSolver:  Solving for epsilon, Initial residual = 0.000883077, Final residual = 6.26479e-05, No Iterations 5
smoothSolver:  Solving for k, Initial residual = 0.000176773, Final residual = 1.3727e-05, No Iterations 6
ExecutionTime = 66.17 s  ClockTime = 67 s

Time = 1976

smoothSolver:  Solving for Ux, Initial residual = 6.35745e-05, Final residual = 9.34269e-06, No Iterations 3
smoothSolver:  Solving for Uy, Initial residual = 0.00063014, Final residual = 6.13014e-05, No Iterations 5
GAMG:  Solving for p, Initial residual = 0.028742, Final residual = 0.00233006, No Iterations 1
time step continuity errors : sum local = 0.055857, global = 0.00026712, cumulative = 1.1224
smoothSolver:  Solving for epsilon, Initial residual = 0.00211871, Final residual = 0.000200129, No Iterations 4
smoothSolver:  Solving for k, Initial residual = 0.000272867, Final residual = 2.71504e-05, No Iterations 5
ExecutionTime = 66.21 s  ClockTime = 67 s

Time = 1977

smoothSolver:  Solving for Ux, Initial residual = 5.14902e-05, Final residual = 7.78033e-06, No Iterations 3
smoothSolver:  Solving for Uy, Initial residual = 0.000605835, Final residual = 5.78434e-05, No Iterations 5
GAMG:  Solving for p, Initial residual = 0.0301129, Final residual = 0.00209953, No Iterations 1
time step continuity errors : sum local = 0.0542128, global = 4.92377e-05, cumulative = 1.12245
smoothSolver:  Solving for epsilon, Initial residual = 0.00106726, Final residual = 0.000100204, No Iterations 3
smoothSolver:  Solving for k, Initial residual = 0.000213406, Final residual = 1.95257e-05, No Iterations 3
ExecutionTime = 66.23 s  ClockTime = 67 s

Time = 1978

smoothSolver:  Solving for Ux, Initial residual = 3.92445e-05, Final residual = 8.35504e-06, No Iterations 2
smoothSolver:  Solving for Uy, Initial residual = 0.000528121, Final residual = 4.14722e-05, No Iterations 6
GAMG:  Solving for p, Initial residual = 0.0230177, Final residual = 0.00201474, No Iterations 1
time step continuity errors : sum local = 0.0501307, global = 0.000279706, cumulative = 1.12273
smoothSolver:  Solving for epsilon, Initial residual = 0.000847208, Final residual = 8.3982e-05, No Iterations 4
smoothSolver:  Solving for k, Initial residual = 0.000168903, Final residual = 1.25789e-05, No Iterations 6
ExecutionTime = 66.25 s  ClockTime = 67 s

Time = 1979

smoothSolver:  Solving for Ux, Initial residual = 6.12938e-05, Final residual = 8.4058e-06, No Iterations 3
smoothSolver:  Solving for Uy, Initial residual = 0.000623535, Final residual = 5.9345e-05, No Iterations 5
GAMG:  Solving for p, Initial residual = 0.0254282, Final residual = 0.00207242, No Iterations 1
time step continuity errors : sum local = 0.0494971, global = 0.000170048, cumulative = 1.1229
smoothSolver:  Solving for epsilon, Initial residual = 0.0020694, Final residual = 0.00018887, No Iterations 4
smoothSolver:  Solving for k, Initial residual = 0.000272153, Final residual = 2.67922e-05, No Iterations 5
ExecutionTime = 66.29 s  ClockTime = 67 s

Time = 1980

smoothSolver:  Solving for Ux, Initial residual = 4.64435e-05, Final residual = 7.00919e-06, No Iterations 3
smoothSolver:  Solving for Uy, Initial residual = 0.000538117, Final residual = 4.24044e-05, No Iterations 6
GAMG:  Solving for p, Initial residual = 0.0279362, Final residual = 0.00205384, No Iterations 1
time step continuity errors : sum local = 0.0531297, global = 0.000134017, cumulative = 1.12303
smoothSolver:  Solving for epsilon, Initial residual = 0.00105051, Final residual = 9.88679e-05, No Iterations 3
smoothSolver:  Solving for k, Initial residual = 0.000206117, Final residual = 1.92461e-05, No Iterations 3
ExecutionTime = 66.31 s  ClockTime = 67 s

Time = 1981

smoothSolver:  Solving for Ux, Initial residual = 3.96803e-05, Final residual = 8.06259e-06, No Iterations 2
smoothSolver:  Solving for Uy, Initial residual = 0.000505907, Final residual = 3.79468e-05, No Iterations 6
GAMG:  Solving for p, Initial residual = 0.0225216, Final residual = 0.00211424, No Iterations 1
time step continuity errors : sum local = 0.0524769, global = 0.000328937, cumulative = 1.12336
smoothSolver:  Solving for epsilon, Initial residual = 0.000812422, Final residual = 5.81192e-05, No Iterations 5
smoothSolver:  Solving for k, Initial residual = 0.000169018, Final residual = 1.31001e-05, No Iterations 6
ExecutionTime = 66.35 s  ClockTime = 67 s

Time = 1982

smoothSolver:  Solving for Ux, Initial residual = 6.1806e-05, Final residual = 8.78596e-06, No Iterations 3
smoothSolver:  Solving for Uy, Initial residual = 0.000656196, Final residual = 6.48518e-05, No Iterations 5
GAMG:  Solving for p, Initial residual = 0.0270061, Final residual = 0.00236865, No Iterations 1
time step continuity errors : sum local = 0.0563846, global = 0.000225046, cumulative = 1.12359
smoothSolver:  Solving for epsilon, Initial residual = 0.0021902, Final residual = 0.000208629, No Iterations 4
smoothSolver:  Solving for k, Initial residual = 0.000281264, Final residual = 2.07807e-05, No Iterations 6
ExecutionTime = 66.38 s  ClockTime = 67 s

Time = 1983

smoothSolver:  Solving for Ux, Initial residual = 4.94591e-05, Final residual = 7.36771e-06, No Iterations 3
smoothSolver:  Solving for Uy, Initial residual = 0.000596809, Final residual = 4.50788e-05, No Iterations 6
GAMG:  Solving for p, Initial residual = 0.0322337, Final residual = 0.002624, No Iterations 1
time step continuity errors : sum local = 0.0682474, global = -2.67572e-05, cumulative = 1.12356
smoothSolver:  Solving for epsilon, Initial residual = 0.00118236, Final residual = 0.000111867, No Iterations 3
smoothSolver:  Solving for k, Initial residual = 0.000219868, Final residual = 2.08151e-05, No Iterations 3
ExecutionTime = 66.42 s  ClockTime = 67 s

Time = 1984

smoothSolver:  Solving for Ux, Initial residual = 4.2653e-05, Final residual = 8.40899e-06, No Iterations 2
smoothSolver:  Solving for Uy, Initial residual = 0.000511193, Final residual = 4.60524e-05, No Iterations 5
GAMG:  Solving for p, Initial residual = 0.0231668, Final residual = 0.00209125, No Iterations 1
time step continuity errors : sum local = 0.0520964, global = 0.000232722, cumulative = 1.12379
smoothSolver:  Solving for epsilon, Initial residual = 0.000841604, Final residual = 5.87754e-05, No Iterations 5
smoothSolver:  Solving for k, Initial residual = 0.000173219, Final residual = 1.30401e-05, No Iterations 6
ExecutionTime = 66.45 s  ClockTime = 67 s

Time = 1985

smoothSolver:  Solving for Ux, Initial residual = 6.4827e-05, Final residual = 9.0883e-06, No Iterations 3
smoothSolver:  Solving for Uy, Initial residual = 0.000659592, Final residual = 4.94812e-05, No Iterations 6
GAMG:  Solving for p, Initial residual = 0.0283061, Final residual = 0.00263806, No Iterations 1
time step continuity errors : sum local = 0.0628207, global = 0.000169814, cumulative = 1.12396
smoothSolver:  Solving for epsilon, Initial residual = 0.0020912, Final residual = 0.000196912, No Iterations 4
smoothSolver:  Solving for k, Initial residual = 0.000280345, Final residual = 2.69279e-05, No Iterations 5
ExecutionTime = 66.48 s  ClockTime = 67 s

Time = 1986

smoothSolver:  Solving for Ux, Initial residual = 4.67717e-05, Final residual = 6.80909e-06, No Iterations 3
smoothSolver:  Solving for Uy, Initial residual = 0.000617792, Final residual = 4.50428e-05, No Iterations 6
GAMG:  Solving for p, Initial residual = 0.0313675, Final residual = 0.00237202, No Iterations 1
time step continuity errors : sum local = 0.0613733, global = -3.80313e-05, cumulative = 1.12392
smoothSolver:  Solving for epsilon, Initial residual = 0.00110464, Final residual = 0.000102909, No Iterations 3
smoothSolver:  Solving for k, Initial residual = 0.000218005, Final residual = 2.05102e-05, No Iterations 3
ExecutionTime = 66.51 s  ClockTime = 67 s

Time = 1987

smoothSolver:  Solving for Ux, Initial residual = 3.96238e-05, Final residual = 8.30507e-06, No Iterations 2
smoothSolver:  Solving for Uy, Initial residual = 0.000571966, Final residual = 5.43922e-05, No Iterations 5
GAMG:  Solving for p, Initial residual = 0.0264296, Final residual = 0.00245332, No Iterations 1
time step continuity errors : sum local = 0.0611767, global = 0.000111764, cumulative = 1.12404
smoothSolver:  Solving for epsilon, Initial residual = 0.000819139, Final residual = 8.07653e-05, No Iterations 4
smoothSolver:  Solving for k, Initial residual = 0.000164701, Final residual = 1.2697e-05, No Iterations 6
ExecutionTime = 66.54 s  ClockTime = 67 s

Time = 1988

smoothSolver:  Solving for Ux, Initial residual = 6.4044e-05, Final residual = 8.44487e-06, No Iterations 3
smoothSolver:  Solving for Uy, Initial residual = 0.000661102, Final residual = 5.22427e-05, No Iterations 5
GAMG:  Solving for p, Initial residual = 0.0238446, Final residual = 0.00200464, No Iterations 1
time step continuity errors : sum local = 0.0476345, global = 8.26376e-05, cumulative = 1.12412
smoothSolver:  Solving for epsilon, Initial residual = 0.00211425, Final residual = 0.00019947, No Iterations 4
smoothSolver:  Solving for k, Initial residual = 0.000275788, Final residual = 2.02335e-05, No Iterations 6
ExecutionTime = 66.57 s  ClockTime = 67 s

Time = 1989

smoothSolver:  Solving for Ux, Initial residual = 4.88548e-05, Final residual = 7.64993e-06, No Iterations 3
smoothSolver:  Solving for Uy, Initial residual = 0.000630132, Final residual = 4.81916e-05, No Iterations 6
GAMG:  Solving for p, Initial residual = 0.0353165, Final residual = 0.00278854, No Iterations 1
time step continuity errors : sum local = 0.0723466, global = -7.53449e-05, cumulative = 1.12404
smoothSolver:  Solving for epsilon, Initial residual = 0.00121224, Final residual = 0.000114107, No Iterations 3
smoothSolver:  Solving for k, Initial residual = 0.000222332, Final residual = 2.15841e-05, No Iterations 3
ExecutionTime = 66.61 s  ClockTime = 67 s

Time = 1990

smoothSolver:  Solving for Ux, Initial residual = 4.19124e-05, Final residual = 8.83861e-06, No Iterations 2
smoothSolver:  Solving for Uy, Initial residual = 0.000578097, Final residual = 5.3466e-05, No Iterations 5
GAMG:  Solving for p, Initial residual = 0.0253573, Final residual = 0.00227418, No Iterations 1
time step continuity errors : sum local = 0.0568791, global = 8.8802e-06, cumulative = 1.12405
smoothSolver:  Solving for epsilon, Initial residual = 0.000976883, Final residual = 9.50943e-05, No Iterations 4
smoothSolver:  Solving for k, Initial residual = 0.000181654, Final residual = 1.79267e-05, No Iterations 5
ExecutionTime = 66.63 s  ClockTime = 67 s

Time = 1991

smoothSolver:  Solving for Ux, Initial residual = 6.67971e-05, Final residual = 9.35551e-06, No Iterations 3
smoothSolver:  Solving for Uy, Initial residual = 0.000682753, Final residual = 6.02531e-05, No Iterations 5
GAMG:  Solving for p, Initial residual = 0.0291324, Final residual = 0.0025397, No Iterations 1
time step continuity errors : sum local = 0.0608295, global = 0.00015665, cumulative = 1.12421
smoothSolver:  Solving for epsilon, Initial residual = 0.00206209, Final residual = 0.000184081, No Iterations 4
smoothSolver:  Solving for k, Initial residual = 0.000270583, Final residual = 2.59759e-05, No Iterations 5
ExecutionTime = 66.66 s  ClockTime = 67 s

Time = 1992

smoothSolver:  Solving for Ux, Initial residual = 5.0786e-05, Final residual = 6.71053e-06, No Iterations 3
smoothSolver:  Solving for Uy, Initial residual = 0.000584383, Final residual = 5.64922e-05, No Iterations 5
GAMG:  Solving for p, Initial residual = 0.0291863, Final residual = 0.00215179, No Iterations 1
time step continuity errors : sum local = 0.0552589, global = -0.000278668, cumulative = 1.12393
smoothSolver:  Solving for epsilon, Initial residual = 0.000990151, Final residual = 9.78672e-05, No Iterations 3
smoothSolver:  Solving for k, Initial residual = 0.000214128, Final residual = 1.95584e-05, No Iterations 3
ExecutionTime = 66.7 s  ClockTime = 67 s

Time = 1993

smoothSolver:  Solving for Ux, Initial residual = 3.70522e-05, Final residual = 8.00371e-06, No Iterations 2
smoothSolver:  Solving for Uy, Initial residual = 0.000458931, Final residual = 4.56411e-05, No Iterations 5
GAMG:  Solving for p, Initial residual = 0.018996, Final residual = 0.00181802, No Iterations 1
time step continuity errors : sum local = 0.0451936, global = -6.273e-05, cumulative = 1.12387
smoothSolver:  Solving for epsilon, Initial residual = 0.000800099, Final residual = 5.83317e-05, No Iterations 5
smoothSolver:  Solving for k, Initial residual = 0.00016592, Final residual = 1.33199e-05, No Iterations 6
ExecutionTime = 66.73 s  ClockTime = 67 s

Time = 1994

smoothSolver:  Solving for Ux, Initial residual = 6.08301e-05, Final residual = 8.88321e-06, No Iterations 3
smoothSolver:  Solving for Uy, Initial residual = 0.000569987, Final residual = 5.61745e-05, No Iterations 5
GAMG:  Solving for p, Initial residual = 0.0255245, Final residual = 0.00217154, No Iterations 1
time step continuity errors : sum local = 0.0517823, global = 2.91225e-05, cumulative = 1.1239
smoothSolver:  Solving for epsilon, Initial residual = 0.00218495, Final residual = 0.000208302, No Iterations 4
smoothSolver:  Solving for k, Initial residual = 0.000277056, Final residual = 2.07859e-05, No Iterations 6
ExecutionTime = 66.76 s  ClockTime = 67 s

Time = 1995

smoothSolver:  Solving for Ux, Initial residual = 5.12823e-05, Final residual = 7.72123e-06, No Iterations 3
smoothSolver:  Solving for Uy, Initial residual = 0.000693389, Final residual = 6.41713e-05, No Iterations 5
GAMG:  Solving for p, Initial residual = 0.0320575, Final residual = 0.00223063, No Iterations 1
time step continuity errors : sum local = 0.0580253, global = -0.000288944, cumulative = 1.12361
smoothSolver:  Solving for epsilon, Initial residual = 0.00115634, Final residual = 0.000103708, No Iterations 3
smoothSolver:  Solving for k, Initial residual = 0.000215374, Final residual = 2.0618e-05, No Iterations 3
ExecutionTime = 66.8 s  ClockTime = 67 s

Time = 1996

smoothSolver:  Solving for Ux, Initial residual = 4.17621e-05, Final residual = 8.02771e-06, No Iterations 2
smoothSolver:  Solving for Uy, Initial residual = 0.000570399, Final residual = 5.03953e-05, No Iterations 5
GAMG:  Solving for p, Initial residual = 0.0205667, Final residual = 0.0018876, No Iterations 1
time step continuity errors : sum local = 0.0469811, global = -0.000188331, cumulative = 1.12342
smoothSolver:  Solving for epsilon, Initial residual = 0.000849417, Final residual = 6.15282e-05, No Iterations 5
smoothSolver:  Solving for k, Initial residual = 0.000174252, Final residual = 1.34918e-05, No Iterations 6
ExecutionTime = 66.83 s  ClockTime = 67 s

Time = 1997

smoothSolver:  Solving for Ux, Initial residual = 6.38159e-05, Final residual = 8.99974e-06, No Iterations 3
smoothSolver:  Solving for Uy, Initial residual = 0.000616677, Final residual = 6.04655e-05, No Iterations 5
GAMG:  Solving for p, Initial residual = 0.025323, Final residual = 0.00209113, No Iterations 1
time step continuity errors : sum local = 0.0499046, global = -0.000156739, cumulative = 1.12326
smoothSolver:  Solving for epsilon, Initial residual = 0.00202399, Final residual = 0.000193164, No Iterations 4
smoothSolver:  Solving for k, Initial residual = 0.000273337, Final residual = 2.68871e-05, No Iterations 5
ExecutionTime = 66.86 s  ClockTime = 68 s

Time = 1998

smoothSolver:  Solving for Ux, Initial residual = 4.76145e-05, Final residual = 7.10198e-06, No Iterations 3
smoothSolver:  Solving for Uy, Initial residual = 0.000560537, Final residual = 4.29218e-05, No Iterations 6
GAMG:  Solving for p, Initial residual = 0.0304567, Final residual = 0.00234923, No Iterations 1
time step continuity errors : sum local = 0.0606184, global = -0.000375613, cumulative = 1.12289
smoothSolver:  Solving for epsilon, Initial residual = 0.00113009, Final residual = 7.61844e-05, No Iterations 4
smoothSolver:  Solving for k, Initial residual = 0.000220289, Final residual = 1.65439e-05, No Iterations 4
ExecutionTime = 66.89 s  ClockTime = 68 s

Time = 1999

smoothSolver:  Solving for Ux, Initial residual = 4.09402e-05, Final residual = 9.05621e-06, No Iterations 2
smoothSolver:  Solving for Uy, Initial residual = 0.000494141, Final residual = 3.88023e-05, No Iterations 6
GAMG:  Solving for p, Initial residual = 0.0224271, Final residual = 0.00215984, No Iterations 1
time step continuity errors : sum local = 0.0541789, global = -0.00026957, cumulative = 1.12262
smoothSolver:  Solving for epsilon, Initial residual = 0.00092506, Final residual = 9.15266e-05, No Iterations 4
smoothSolver:  Solving for k, Initial residual = 0.000179427, Final residual = 1.35562e-05, No Iterations 6
ExecutionTime = 66.93 s  ClockTime = 68 s

Time = 2000

smoothSolver:  Solving for Ux, Initial residual = 6.53734e-05, Final residual = 8.61106e-06, No Iterations 3
smoothSolver:  Solving for Uy, Initial residual = 0.000639748, Final residual = 6.10873e-05, No Iterations 5
GAMG:  Solving for p, Initial residual = 0.0295888, Final residual = 0.00248133, No Iterations 1
time step continuity errors : sum local = 0.0595208, global = -0.000303905, cumulative = 1.12231
smoothSolver:  Solving for epsilon, Initial residual = 0.00210828, Final residual = 0.000198571, No Iterations 4
smoothSolver:  Solving for k, Initial residual = 0.000276912, Final residual = 2.74029e-05, No Iterations 5
ExecutionTime = 66.99 s  ClockTime = 68 s

streamLine streamlines write:
    seeded 10 particles
    Tracks:20
    Total samples:24055
    Writing data to "/home/ubuntu/OpenFOAM/ubuntu-7/run/pd-ref/postProcessing/sets/streamlines/2000"
End

Finalising parallel run
